*EXP.DETAILS:  p2012 pDSSAT maize NARR State 19, County 165

*GENERAL
@PEOPLE
Joshua Elliott
@ADDRESS
Computation Institute, University of Chicago
@SITE
latitude, longitude

@ PAREA  PRNO  PLEN  PLDR  PLSP  PLAY HAREA  HRNO  HLEN  HARM.........
    -99   -99   -99   -99   -99   -99   -99   -99   -99   -99

*TREATMENTS                        -------------FACTOR LEVELS------------
@N R O C TNAME.................... CU FL SA IC MP MI MF MR MC MT ME MH SM
 1 1 0 0 (Irri-pd1-1979)            8  1  0 10  8  0  1  0  0  0  0  0  1
 2 1 0 0 (Irri-pd1-1985)           17  1  0 10  9  0  2  0  0  0  0  0  2
 3 1 0 0 (Irri-pd1-1990)           28  1  0 10 10  0  3  0  0  0  0  0  3
 4 1 0 0 (Irri-pd1-1995)           36  1  0 10 11  0  4  0  0  0  0  0  4
 5 1 0 0 (Irri-pd1-2000)           48  1  0 10 12  0  5  0  0  0  0  0  5
 6 1 0 0 (Irri-pd1-2005)           59  1  0 10 13  0  6  0  0  0  0  0  6
 7 1 0 0 (Irri-pd1-2010)           69  1  0 10 14  0  7  0  0  0  0  0  7
 8 1 0 0 (Irri-pd1-1988c)          69  1  0 10 14  0  7  0  0  0  0  0  8
 9 1 0 0 (Irri-pd1-2012c)          18  1  0 10  9  0  2  0  0  0  0  0  9
!
10 1 0 0 (Rain-pd1-1979)            8  1  0 10  1  0  1  0  0  0  0  0 10
11 1 0 0 (Rain-pd1-1985)           17  1  0 10  2  0  2  0  0  0  0  0 11
12 1 0 0 (Rain-pd1-1990)           28  1  0 10  3  0  3  0  0  0  0  0 12
13 1 0 0 (Rain-pd1-1995)           36  1  0 10  4  0  4  0  0  0  0  0 13
14 1 0 0 (Rain-pd1-2000)           48  1  0 10  5  0  5  0  0  0  0  0 14
15 1 0 0 (Rain-pd1-2005)           59  1  0 10  6  0  6  0  0  0  0  0 15
16 1 0 0 (Rain-pd1-2010)           69  1  0 10  7  0  7  0  0  0  0  0 16
17 1 0 0 (Rain-pd1-1988c)          69  1  0 10  7  0  7  0  0  0  0  0 17
18 1 0 0 (Rain-pd1-2012c)          18  1  0 10  2  0  2  0  0  0  0  0 18
!
19 1 0 0 (Irri-pd2-1979)            7  1  0 10  8  0  1  0  0  0  0  0 19
20 1 0 0 (Irri-pd2-1985)           17  1  0 10  9  0  2  0  0  0  0  0 20
21 1 0 0 (Irri-pd2-1990)           27  1  0 10 10  0  3  0  0  0  0  0 21
22 1 0 0 (Irri-pd2-1995)           35  1  0 10 11  0  4  0  0  0  0  0 22
23 1 0 0 (Irri-pd2-2000)           48  1  0 10 12  0  5  0  0  0  0  0 23
24 1 0 0 (Irri-pd2-2005)           59  1  0 10 13  0  6  0  0  0  0  0 24
25 1 0 0 (Irri-pd2-2010)           68  1  0 10 14  0  7  0  0  0  0  0 25
26 1 0 0 (Irri-pd2-1988c)          68  1  0 10 14  0  7  0  0  0  0  0 26
27 1 0 0 (Irri-pd2-2012c)          17  1  0 10  9  0  2  0  0  0  0  0 27
!
28 1 0 0 (Rain-pd2-1979)            7  1  0 10  1  0  1  0  0  0  0  0 28
29 1 0 0 (Rain-pd2-1985)           17  1  0 10  2  0  2  0  0  0  0  0 29
30 1 0 0 (Rain-pd2-1990)           27  1  0 10  3  0  3  0  0  0  0  0 30
31 1 0 0 (Rain-pd2-1995)           35  1  0 10  4  0  4  0  0  0  0  0 31
32 1 0 0 (Rain-pd2-2000)           48  1  0 10  5  0  5  0  0  0  0  0 32
33 1 0 0 (Rain-pd2-2005)           59  1  0 10  6  0  6  0  0  0  0  0 33
34 1 0 0 (Rain-pd2-2010)           68  1  0 10  7  0  7  0  0  0  0  0 34
35 1 0 0 (Rain-pd2-1988c)          68  1  0 10  7  0  7  0  0  0  0  0 35
36 1 0 0 (Rain-pd2-2012c)          17  1  0 10  2  0  2  0  0  0  0  0 36
!
37 1 0 0 (Irri-pd3-1979)            7  1  0 10  8  0  1  0  0  0  0  0 37
38 1 0 0 (Irri-pd3-1985)           16  1  0 10  9  0  2  0  0  0  0  0 38
39 1 0 0 (Irri-pd3-1990)           27  1  0 10 10  0  3  0  0  0  0  0 39
40 1 0 0 (Irri-pd3-1995)           35  1  0 10 11  0  4  0  0  0  0  0 40
41 1 0 0 (Irri-pd3-2000)           48  1  0 10 12  0  5  0  0  0  0  0 41
42 1 0 0 (Irri-pd3-2005)           58  1  0 10 13  0  6  0  0  0  0  0 42
43 1 0 0 (Irri-pd3-2010)           68  1  0 10 14  0  7  0  0  0  0  0 43
44 1 0 0 (Irri-pd3-1988c)          68  1  0 10 14  0  7  0  0  0  0  0 44
45 1 0 0 (Irri-pd3-2012c)          17  1  0 10  9  0  2  0  0  0  0  0 45
!
46 1 0 0 (Rain-pd3-1979)            7  1  0 10  1  0  1  0  0  0  0  0 46
47 1 0 0 (Rain-pd3-1985)           16  1  0 10  2  0  2  0  0  0  0  0 47
48 1 0 0 (Rain-pd3-1990)           27  1  0 10  3  0  3  0  0  0  0  0 48
49 1 0 0 (Rain-pd3-1995)           35  1  0 10  4  0  4  0  0  0  0  0 49
50 1 0 0 (Rain-pd3-2000)           48  1  0 10  5  0  5  0  0  0  0  0 50
51 1 0 0 (Rain-pd3-2005)           58  1  0 10  6  0  6  0  0  0  0  0 51
52 1 0 0 (Rain-pd3-2010)           68  1  0 10  7  0  7  0  0  0  0  0 52
53 1 0 0 (Rain-pd3-1988c)          68  1  0 10  7  0  7  0  0  0  0  0 53
54 1 0 0 (Rain-pd3-2012c)          17  1  0 10  2  0  2  0  0  0  0  0 54
!
55 1 0 0 (Irri-pd4-1979)            6  1  0 10  8  0  1  0  0  0  0  0 55
56 1 0 0 (Irri-pd4-1985)           15  1  0 10  9  0  2  0  0  0  0  0 56
57 1 0 0 (Irri-pd4-1990)           26  1  0 10 10  0  3  0  0  0  0  0 57
58 1 0 0 (Irri-pd4-1995)           34  1  0 10 11  0  4  0  0  0  0  0 58
59 1 0 0 (Irri-pd4-2000)           47  1  0 10 12  0  5  0  0  0  0  0 59
60 1 0 0 (Irri-pd4-2005)           58  1  0 10 13  0  6  0  0  0  0  0 60
61 1 0 0 (Irri-pd4-2010)           68  1  0 10 14  0  7  0  0  0  0  0 61
62 1 0 0 (Irri-pd4-1988c)          68  1  0 10 14  0  7  0  0  0  0  0 62
63 1 0 0 (Irri-pd4-2012c)          16  1  0 10  9  0  2  0  0  0  0  0 63
!
64 1 0 0 (Rain-pd4-1979)            6  1  0 10  1  0  1  0  0  0  0  0 64
65 1 0 0 (Rain-pd4-1985)           15  1  0 10  2  0  2  0  0  0  0  0 65
66 1 0 0 (Rain-pd4-1990)           26  1  0 10  3  0  3  0  0  0  0  0 66
67 1 0 0 (Rain-pd4-1995)           34  1  0 10  4  0  4  0  0  0  0  0 67
68 1 0 0 (Rain-pd4-2000)           47  1  0 10  5  0  5  0  0  0  0  0 68
69 1 0 0 (Rain-pd4-2005)           58  1  0 10  6  0  6  0  0  0  0  0 69
70 1 0 0 (Rain-pd4-2010)           68  1  0 10  7  0  7  0  0  0  0  0 70
71 1 0 0 (Rain-pd4-1988c)          68  1  0 10  7  0  7  0  0  0  0  0 71
72 1 0 0 (Rain-pd4-2012c)          16  1  0 10  2  0  2  0  0  0  0  0 72
!
73 1 0 0 (Irri-pd5-1979)            5  1  0 10  8  0  1  0  0  0  0  0 73
74 1 0 0 (Irri-pd5-1985)           14  1  0 10  9  0  2  0  0  0  0  0 74
75 1 0 0 (Irri-pd5-1990)           24  1  0 10 10  0  3  0  0  0  0  0 75
76 1 0 0 (Irri-pd5-1995)           34  1  0 10 11  0  4  0  0  0  0  0 76
77 1 0 0 (Irri-pd5-2000)           47  1  0 10 12  0  5  0  0  0  0  0 77
78 1 0 0 (Irri-pd5-2005)           57  1  0 10 13  0  6  0  0  0  0  0 78
79 1 0 0 (Irri-pd5-2010)           67  1  0 10 14  0  7  0  0  0  0  0 79
80 1 0 0 (Irri-pd5-1988c)          67  1  0 10 14  0  7  0  0  0  0  0 80
81 1 0 0 (Irri-pd5-2012c)          15  1  0 10  9  0  2  0  0  0  0  0 81
!
82 1 0 0 (Rain-pd5-1979)            5  1  0 10  1  0  1  0  0  0  0  0 82
83 1 0 0 (Rain-pd5-1985)           14  1  0 10  2  0  2  0  0  0  0  0 83
84 1 0 0 (Rain-pd5-1990)           24  1  0 10  3  0  3  0  0  0  0  0 84
85 1 0 0 (Rain-pd5-1995)           34  1  0 10  4  0  4  0  0  0  0  0 85
86 1 0 0 (Rain-pd5-2000)           47  1  0 10  5  0  5  0  0  0  0  0 86
87 1 0 0 (Rain-pd5-2005)           57  1  0 10  6  0  6  0  0  0  0  0 87
88 1 0 0 (Rain-pd5-2010)           67  1  0 10  7  0  7  0  0  0  0  0 88
89 1 0 0 (Rain-pd5-1988c)          67  1  0 10  7  0  7  0  0  0  0  0 89
90 1 0 0 (Rain-pd5-2012c)          15  1  0 10  2  0  2  0  0  0  0  0 90
! The last two sims in each chunk are 1 year couterfactual sims, used to 
! looked at the 1988 season with 2012 tech and the 2012 season
! with 1988 tech.

*CULTIVARS
@C CR INGENO CNAME
 1 MZ HY0011 HY11
 2 MZ HY0021 HY21
 3 MZ HY0031 HY31
 4 MZ HY0041 HY41
 5 MZ HY0051 HY51
 6 MZ HY0061 HY61
 7 MZ HY0071 HY71
 8 MZ HY0081 HY81
 9 MZ HY0091 HY91
10 MZ HY0101 HY01
11 MZ HY0012 HY12
12 MZ HY0022 HY22
13 MZ HY0032 HY32
14 MZ HY0042 HY42
15 MZ HY0052 HY52
16 MZ HY0062 HY62
17 MZ HY0072 HY72
18 MZ HY0082 HY82
19 MZ HY0092 HY92
20 MZ HY0102 HY02
21 MZ HY0013 HY13
22 MZ HY0023 HY23
23 MZ HY0033 HY33
24 MZ HY0043 HY43
25 MZ HY0053 HY53
26 MZ HY0063 HY63
27 MZ HY0073 HY73
28 MZ HY0083 HY83
29 MZ HY0093 HY93
30 MZ HY0103 HY03
31 MZ HY0014 HY14
32 MZ HY0024 HY24
33 MZ HY0034 HY34
34 MZ HY0044 HY44
35 MZ HY0054 HY54
36 MZ HY0064 HY64
37 MZ HY0074 HY74
38 MZ HY0084 HY84
39 MZ HY0094 HY94
40 MZ HY0104 HY04
41 MZ HY0015 HY15
42 MZ HY0025 HY25
43 MZ HY0035 HY35
44 MZ HY0045 HY45
45 MZ HY0055 HY55
46 MZ HY0065 HY65
47 MZ HY0075 HY75
48 MZ HY0085 HY85
49 MZ HY0095 HY95
50 MZ HY0105 HY05
51 MZ HY0016 HY16
52 MZ HY0026 HY26
53 MZ HY0036 HY36
54 MZ HY0046 HY46
55 MZ HY0056 HY56
56 MZ HY0066 HY66
57 MZ HY0076 HY76
58 MZ HY0086 HY86
59 MZ HY0096 HY96
60 MZ HY0106 HY06
61 MZ HY0017 HY17
62 MZ HY0027 HY27
63 MZ HY0037 HY37
64 MZ HY0047 HY47
65 MZ HY0057 HY57
66 MZ HY0067 HY67
67 MZ HY0077 HY77
68 MZ HY0087 HY87
69 MZ HY0097 HY97
70 MZ HY0107 HY07

*FIELDS
@L ID_FIELD WSTA....  FLSA  FLOB  FLDT  FLDD  FLDS  FLST SLTX  SLDP  ID_SOIL    FLNAME
 1 GENERIC  GENERIC1   -99   -99   -99   -99   -99   -99 -99    -99  XY01234567 Weather 1979-2012
@L ...........XCRD ...........YCRD .....ELEV .............AREA .SLEN .FLWR .SLAS FLHST FHDUR
 1             -99             -99       -99               -99   -99   -99   -99   -99   -99

*SOIL ANALYSIS
@A SADAT  SMHB  SMPX  SMKE  SANAME
 1 63100   -99   -99   -99  TEST
@A  SABL  SADM  SAOC  SANI SAPHW SAPHB  SAPX  SAKE  SASC
 1    15   -99   -99   -99   -99   -99   -99   -99   -99

*INITIAL CONDITIONS
@C   PCR ICDAT  ICRT  ICND  ICRN  ICRE  ICWD ICRES ICREN ICREP ICRIP ICRID ICNAME
 1    MZ 63001   -99   -99     1     1   -99  1000     1     0   100    10 1000kg Residue
 2    MZ 69001   -99   -99     1     1   -99  1000     1     0   100    10 1000kg Residue
 3    MZ 74001   -99   -99     1     1   -99  1000     1     0   100    10 1000kg Residue
 4    MZ 79001   -99   -99     1     1   -99  1000     1     0   100    10 1000kg Residue
 5    MZ 84001   -99   -99     1     1   -99  1000     1     0   100    10 1000kg Residue
 6    MZ 89001   -99   -99     1     1   -99  1000     1     0   100    10 1000kg Residue
 7    MZ 94001   -99   -99     1     1   -99  1000     1     0   100    10 1000kg Residue
 8    MZ 72001   -99   -99     1     1   -99  1000     1     0   100    10 1000kg Residue
 9    MZ 96001   -99   -99     1     1   -99  1000     1     0   100    10 1000kg Residue
10    MZ 96001   -99   -99     1     1   -99  1000     1     0   100    10 1000kg Residue
@C  ICBL  SH2O  SNH4  SNO3
 1    10  9423    .1    .7
 1    40  1347    .1    .7
 1   100  2313    .1    .7
 1   200  6297    .1    .7
 2    10  6201    .1    .7
 2    40  1801    .1    .7
 2   100  2213    .1    .7
 2   200  4909    .1    .7
 3    10  0075    .1    .7
 3    40  3467    .1    .7
 3   100  207.    .1    .7
 3   200  0319    .1    .7
 4    10  4893    .1    .7
 4    40  0001    .1    .7
 4   100  3283    .1    .7
 4   200  5173    .1    .7
 5    10  1809    .1    .7
 5    40  6997    .1    .7
 5   100  4029    .1    .7
 5   200  4689    .1    .7
 6    10  0241    .1    .7
 6    40  3159    .1    .7
 6   100  5163    .1    .7
 6   200  2415    .1    .7
 7    10  8609    .1    .7
 7    40  4189    .1    .7
 7   100  409.    .1    .7
 7   200  547.    .1    .7
 8    10  6201    .1    .7
 8    40  1801    .1    .7
 8   100  2213    .1    .7
 8   200  4909    .1    .7
 9    10  8609    .1    .7
 9    40  4189    .1    .7
 9   100  409.    .1    .7
 9   200  547.    .1    .7
10    10   -99   1.0   4.0
10    40   -99   1.0   4.0
10   100   -99   1.0   4.0
10   200   -99   1.0   4.0

*PLANTING DETAILS
@P PDATE EDATE  PPOP  PPOE  PLME  PLDS  PLRS  PLRD  PLDP  PLWT  PAGE  PENV  PLPH  SPRL                        PLNAME
 1 63001   -99   5.2   5.2     S     R    75   -99     5   -99   -99   -99   -99   -99                        1979
 2 63001   -99   5.4   5.4     S     R    75   -99     5   -99   -99   -99   -99   -99                        1985
 3 63001   -99   5.7   5.7     S     R    75   -99     5   -99   -99   -99   -99   -99                        1990
 4 63001   -99   6.3   6.3     S     R    75   -99     5   -99   -99   -99   -99   -99                        1995
 5 63001   -99   6.6   6.6     S     R    75   -99     5   -99   -99   -99   -99   -99                        2000
 6 63001   -99   7.1   7.1     S     R    75   -99     5   -99   -99   -99   -99   -99                        2005
 7 63001   -99   7.5   7.5     S     R    75   -99     5   -99   -99   -99   -99   -99                        2010
 8 63001   -99   5.2   5.2     S     R    75   -99     5   -99   -99   -99   -99   -99                        1979I
 9 63001   -99   5.4   5.4     S     R    75   -99     5   -99   -99   -99   -99   -99                        1985I
10 63001   -99   5.7   5.7     S     R    75   -99     5   -99   -99   -99   -99   -99                        1990I
11 63001   -99   6.3   6.3     S     R    75   -99     5   -99   -99   -99   -99   -99                        1995I
12 63001   -99   6.6   6.6     S     R    75   -99     5   -99   -99   -99   -99   -99                        2000I
13 63001   -99   7.1   7.1     S     R    75   -99     5   -99   -99   -99   -99   -99                        2005I
14 63001   -99   7.5   7.5     S     R    75   -99     5   -99   -99   -99   -99   -99                        2010I

*IRRIGATION AND WATER MANAGEMENT
@I  EFIR  IDEP  ITHR  IEPT  IOFF  IAME  IAMT IRNAME
 1  1.00    30    50   100 GS000 IR001    10 -99
@I IDATE  IROP IRVAL
 1   -99 IR001  79.0

*FERTILIZERS (INORGANIC)
@F FDATE  FMCD  FACD  FDEP  FAMN  FAMP  FAMK  FAMC  FAMO  FOCD FERNAME
 1     1 FE001 AP002    15    45   -99   -99   -99   -99   -99 high
 1    45 FE001 AP002    15    95   -99   -99   -99   -99   -99 high
 2     1 FE001 AP002    15    50   -99   -99   -99   -99   -99 high
 2    45 FE001 AP002    15   105   -99   -99   -99   -99   -99 high
 3     1 FE001 AP002    15    50   -99   -99   -99   -99   -99 high
 3    45 FE001 AP002    15   120   -99   -99   -99   -99   -99 high
 4     1 FE001 AP002    15    50   -99   -99   -99   -99   -99 high
 4    45 FE001 AP002    15   135   -99   -99   -99   -99   -99 high
 5     1 FE001 AP002    15    50   -99   -99   -99   -99   -99 high
 5    45 FE001 AP002    15   150   -99   -99   -99   -99   -99 high
 6     1 FE001 AP002    15    50   -99   -99   -99   -99   -99 high
 6    45 FE001 AP002    15   165   -99   -99   -99   -99   -99 high
 7     1 FE001 AP002    15    50   -99   -99   -99   -99   -99 high
 7    45 FE001 AP002    15   180   -99   -99   -99   -99   -99 high


*ENVIRONMENT MODIFICATIONS
@E ODATE EDAY  ERAD  EMAX  EMIN  ERAIN ECO2  EDEW  EWIND ENVNAME  
 1 63001 A   0 A   0 A   0 A   0 A 0.0 R 320 A   0 A   0 320 ppm 

*HARVEST DETAILS
@H HDATE  HSTG  HCOM HSIZE   HPC  HBPC HNAME
 1   -99   -99   -99   -99   -99   -99 Maize

*SIMULATION CONTROLS
!each of the treatments basically needs its own sim control, to change the start year and the planting windows. 
!1979-1984
@N GENERAL     NYERS NREPS START SDATE RSEED SNAME.................... SMODEL
 1 GE              6     1     S 63001  2150 Irrigated                 MZCER
@N OPTIONS     WATER NITRO SYMBI PHOSP POTAS DISES  CHEM  TILL   CO2
 1 OP              Y     Y     Y     N     N     N     N     N     M
@N METHODS     WTHER INCON LIGHT EVAPO INFIL PHOTO HYDRO NSWIT MESOM MESEV MESOL
 1 ME              M     M     E     F     S     C     R     1     G     S     2
@N MANAGEMENT  PLANT IRRIG FERTI RESID HARVS
 1 MA              A     A     D     A     M
@N OUTPUTS     FNAME OVVEW SUMRY FROPT GROUT CAOUT WAOUT NIOUT MIOUT DIOUT VBOSE CHOUT OPOUT
 1 OU              N     Y     Y    14     N     N     N     N     N     N     N     N     N

@  AUTOMATIC MANAGEMENT
@N PLANTING    PFRST PLAST PH2OL PH2OU PH2OD PSTMX PSTMN
 1 PL          63115 63175    40   100    30    40    10
@N IRRIGATION  IMDEP ITHRL ITHRU IROFF IMETH IRAMT IREFF
 1 IR             40    50   100 GS000 IR001    10   .75
@N NITROGEN    NMDEP NMTHR NAMNT NCODE NAOFF
 1 NI             30    10    50 FE001 GS000
@N RESIDUES    RIPCN RTIME RIDEP
 1 RE            100     1    20
@N HARVEST     HFRST HLAST HPCNP HPCNR
 1 HA              0 64365   100     0

@N GENERAL     NYERS NREPS START SDATE RSEED SNAME.................... SMODEL
 2 GE              5     1     S 69001  2150 Irrigated                 MZCER
@N OPTIONS     WATER NITRO SYMBI PHOSP POTAS DISES  CHEM  TILL   CO2
 2 OP              Y     Y     Y     N     N     N     N     N     M
@N METHODS     WTHER INCON LIGHT EVAPO INFIL PHOTO HYDRO NSWIT MESOM MESEV MESOL
 2 ME              M     M     E     F     S     C     R     1     G     S     2
@N MANAGEMENT  PLANT IRRIG FERTI RESID HARVS
 2 MA              A     A     D     A     M
@N OUTPUTS     FNAME OVVEW SUMRY FROPT GROUT CAOUT WAOUT NIOUT MIOUT DIOUT VBOSE CHOUT OPOUT
 2 OU              N     Y     Y    14     N     N     N     N     N     N     N     N     N

@  AUTOMATIC MANAGEMENT
@N PLANTING    PFRST PLAST PH2OL PH2OU PH2OD PSTMX PSTMN
 2 PL          69109 69169    40   100    30    40    10
@N IRRIGATION  IMDEP ITHRL ITHRU IROFF IMETH IRAMT IREFF
 2 IR             40    50   100 GS000 IR001    10   .75
@N NITROGEN    NMDEP NMTHR NAMNT NCODE NAOFF
 2 NI             30    10    50 FE001 GS000
@N RESIDUES    RIPCN RTIME RIDEP
 2 RE            100     1    20
@N HARVEST     HFRST HLAST HPCNP HPCNR
 2 HA              0 70365   100     0

@N GENERAL     NYERS NREPS START SDATE RSEED SNAME.................... SMODEL
 3 GE              5     1     S 74001  2150 Irrigated                 MZCER
@N OPTIONS     WATER NITRO SYMBI PHOSP POTAS DISES  CHEM  TILL   CO2
 3 OP              Y     Y     Y     N     N     N     N     N     M
@N METHODS     WTHER INCON LIGHT EVAPO INFIL PHOTO HYDRO NSWIT MESOM MESEV MESOL
 3 ME              M     M     E     F     S     C     R     1     G     S     2
@N MANAGEMENT  PLANT IRRIG FERTI RESID HARVS
 3 MA              A     A     D     A     M
@N OUTPUTS     FNAME OVVEW SUMRY FROPT GROUT CAOUT WAOUT NIOUT MIOUT DIOUT VBOSE CHOUT OPOUT
 3 OU              N     Y     Y    14     N     N     N     N     N     N     N     N     N

@  AUTOMATIC MANAGEMENT
@N PLANTING    PFRST PLAST PH2OL PH2OU PH2OD PSTMX PSTMN
 3 PL          74112 74172    40   100    30    40    10
@N IRRIGATION  IMDEP ITHRL ITHRU IROFF IMETH IRAMT IREFF
 3 IR             40    50   100 GS000 IR001    10   .75
@N NITROGEN    NMDEP NMTHR NAMNT NCODE NAOFF
 3 NI             30    10    50 FE001 GS000
@N RESIDUES    RIPCN RTIME RIDEP
 3 RE            100     1    20
@N HARVEST     HFRST HLAST HPCNP HPCNR
 3 HA              0 75365   100     0

@N GENERAL     NYERS NREPS START SDATE RSEED SNAME.................... SMODEL
 4 GE              5     1     S 79001  2150 Irrigated                 MZCER
@N OPTIONS     WATER NITRO SYMBI PHOSP POTAS DISES  CHEM  TILL   CO2
 4 OP              Y     Y     Y     N     N     N     N     N     M
@N METHODS     WTHER INCON LIGHT EVAPO INFIL PHOTO HYDRO NSWIT MESOM MESEV MESOL
 4 ME              M     M     E     F     S     C     R     1     G     S     2
@N MANAGEMENT  PLANT IRRIG FERTI RESID HARVS
 4 MA              A     A     D     A     M
@N OUTPUTS     FNAME OVVEW SUMRY FROPT GROUT CAOUT WAOUT NIOUT MIOUT DIOUT VBOSE CHOUT OPOUT
 4 OU              N     Y     Y    14     N     N     N     N     N     N     N     N     N

@  AUTOMATIC MANAGEMENT
@N PLANTING    PFRST PLAST PH2OL PH2OU PH2OD PSTMX PSTMN
 4 PL          79113 79173    40   100    30    40    10
@N IRRIGATION  IMDEP ITHRL ITHRU IROFF IMETH IRAMT IREFF
 4 IR             40    50   100 GS000 IR001    10   .75
@N NITROGEN    NMDEP NMTHR NAMNT NCODE NAOFF
 4 NI             30    10    50 FE001 GS000
@N RESIDUES    RIPCN RTIME RIDEP
 4 RE            100     1    20
@N HARVEST     HFRST HLAST HPCNP HPCNR
 4 HA              0 80365   100     0

@N GENERAL     NYERS NREPS START SDATE RSEED SNAME.................... SMODEL
 5 GE              5     1     S 84001  2150 Irrigated                 MZCER
@N OPTIONS     WATER NITRO SYMBI PHOSP POTAS DISES  CHEM  TILL   CO2
 5 OP              Y     Y     Y     N     N     N     N     N     M
@N METHODS     WTHER INCON LIGHT EVAPO INFIL PHOTO HYDRO NSWIT MESOM MESEV MESOL
 5 ME              M     M     E     F     S     C     R     1     G     S     2
@N MANAGEMENT  PLANT IRRIG FERTI RESID HARVS
 5 MA              A     A     D     A     M
@N OUTPUTS     FNAME OVVEW SUMRY FROPT GROUT CAOUT WAOUT NIOUT MIOUT DIOUT VBOSE CHOUT OPOUT
 5 OU              N     Y     Y    14     N     N     N     N     N     N     N     N     N

@  AUTOMATIC MANAGEMENT
@N PLANTING    PFRST PLAST PH2OL PH2OU PH2OD PSTMX PSTMN
 5 PL          84104 84164    40   100    30    40    10
@N IRRIGATION  IMDEP ITHRL ITHRU IROFF IMETH IRAMT IREFF
 5 IR             40    50   100 GS000 IR001    10   .75
@N NITROGEN    NMDEP NMTHR NAMNT NCODE NAOFF
 5 NI             30    10    50 FE001 GS000
@N RESIDUES    RIPCN RTIME RIDEP
 5 RE            100     1    20
@N HARVEST     HFRST HLAST HPCNP HPCNR
 5 HA              0 85365   100     0

@N GENERAL     NYERS NREPS START SDATE RSEED SNAME.................... SMODEL
 6 GE              5     1     S 89001  2150 Irrigated                 MZCER
@N OPTIONS     WATER NITRO SYMBI PHOSP POTAS DISES  CHEM  TILL   CO2
 6 OP              Y     Y     Y     N     N     N     N     N     M
@N METHODS     WTHER INCON LIGHT EVAPO INFIL PHOTO HYDRO NSWIT MESOM MESEV MESOL
 6 ME              M     M     E     F     S     C     R     1     G     S     2
@N MANAGEMENT  PLANT IRRIG FERTI RESID HARVS
 6 MA              A     A     D     A     M
@N OUTPUTS     FNAME OVVEW SUMRY FROPT GROUT CAOUT WAOUT NIOUT MIOUT DIOUT VBOSE CHOUT OPOUT
 6 OU              N     Y     Y    14     N     N     N     N     N     N     N     N     N

@  AUTOMATIC MANAGEMENT
@N PLANTING    PFRST PLAST PH2OL PH2OU PH2OD PSTMX PSTMN
 6 PL          89105 89165    40   100    30    40    10
@N IRRIGATION  IMDEP ITHRL ITHRU IROFF IMETH IRAMT IREFF
 6 IR             40    50   100 GS000 IR001    10   .75
@N NITROGEN    NMDEP NMTHR NAMNT NCODE NAOFF
 6 NI             30    10    50 FE001 GS000
@N RESIDUES    RIPCN RTIME RIDEP
 6 RE            100     1    20
@N HARVEST     HFRST HLAST HPCNP HPCNR
 6 HA              0 90365   100     0

@N GENERAL     NYERS NREPS START SDATE RSEED SNAME.................... SMODEL
 7 GE              3     1     S 94001  2150 Irrigated                 MZCER
@N OPTIONS     WATER NITRO SYMBI PHOSP POTAS DISES  CHEM  TILL   CO2
 7 OP              Y     Y     Y     N     N     N     N     N     M
@N METHODS     WTHER INCON LIGHT EVAPO INFIL PHOTO HYDRO NSWIT MESOM MESEV MESOL
 7 ME              M     M     E     F     S     C     R     1     G     S     2
@N MANAGEMENT  PLANT IRRIG FERTI RESID HARVS
 7 MA              A     A     D     A     M
@N OUTPUTS     FNAME OVVEW SUMRY FROPT GROUT CAOUT WAOUT NIOUT MIOUT DIOUT VBOSE CHOUT OPOUT
 7 OU              N     Y     Y    14     N     N     N     N     N     N     N     N     N

@  AUTOMATIC MANAGEMENT
@N PLANTING    PFRST PLAST PH2OL PH2OU PH2OD PSTMX PSTMN
 7 PL          94104 94164    40   100    30    40    10
@N IRRIGATION  IMDEP ITHRL ITHRU IROFF IMETH IRAMT IREFF
 7 IR             40    50   100 GS000 IR001    10   .75
@N NITROGEN    NMDEP NMTHR NAMNT NCODE NAOFF
 7 NI             30    10    50 FE001 GS000
@N RESIDUES    RIPCN RTIME RIDEP
 7 RE            100     1    20
@N HARVEST     HFRST HLAST HPCNP HPCNR
 7 HA              0 95365   100     0

@N GENERAL     NYERS NREPS START SDATE RSEED SNAME.................... SMODEL
 8 GE              1     1     S 72001  2150 Irrigated                 MZCER
@N OPTIONS     WATER NITRO SYMBI PHOSP POTAS DISES  CHEM  TILL   CO2
 8 OP              Y     Y     Y     N     N     N     N     N     M
@N METHODS     WTHER INCON LIGHT EVAPO INFIL PHOTO HYDRO NSWIT MESOM MESEV MESOL
 8 ME              M     M     E     F     S     C     R     1     G     S     2
@N MANAGEMENT  PLANT IRRIG FERTI RESID HARVS
 8 MA              A     A     D     A     M
@N OUTPUTS     FNAME OVVEW SUMRY FROPT GROUT CAOUT WAOUT NIOUT MIOUT DIOUT VBOSE CHOUT OPOUT
 8 OU              N     Y     Y    14     N     N     N     N     N     N     N     N     N

@  AUTOMATIC MANAGEMENT
@N PLANTING    PFRST PLAST PH2OL PH2OU PH2OD PSTMX PSTMN
 8 PL          72104 72164    40   100    30    40    10
@N IRRIGATION  IMDEP ITHRL ITHRU IROFF IMETH IRAMT IREFF
 8 IR             40    50   100 GS000 IR001    10   .75
@N NITROGEN    NMDEP NMTHR NAMNT NCODE NAOFF
 8 NI             30    10    50 FE001 GS000
@N RESIDUES    RIPCN RTIME RIDEP
 8 RE            100     1    20
@N HARVEST     HFRST HLAST HPCNP HPCNR
 8 HA              0 73365   100     0

@N GENERAL     NYERS NREPS START SDATE RSEED SNAME.................... SMODEL
 9 GE              1     1     S 96001  2150 Irrigated                 MZCER
@N OPTIONS     WATER NITRO SYMBI PHOSP POTAS DISES  CHEM  TILL   CO2
 9 OP              Y     Y     Y     N     N     N     N     N     M
@N METHODS     WTHER INCON LIGHT EVAPO INFIL PHOTO HYDRO NSWIT MESOM MESEV MESOL
 9 ME              M     M     E     F     S     C     R     1     G     S     2
@N MANAGEMENT  PLANT IRRIG FERTI RESID HARVS
 9 MA              A     A     D     A     M
@N OUTPUTS     FNAME OVVEW SUMRY FROPT GROUT CAOUT WAOUT NIOUT MIOUT DIOUT VBOSE CHOUT OPOUT
 9 OU              N     Y     Y    14     N     N     N     N     N     N     N     N     N

@  AUTOMATIC MANAGEMENT
@N PLANTING    PFRST PLAST PH2OL PH2OU PH2OD PSTMX PSTMN
 9 PL          96109 96169    40   100    30    40    10
@N IRRIGATION  IMDEP ITHRL ITHRU IROFF IMETH IRAMT IREFF
 9 IR             40    50   100 GS000 IR001    10   .75
@N NITROGEN    NMDEP NMTHR NAMNT NCODE NAOFF
 9 NI             30    10    50 FE001 GS000
@N RESIDUES    RIPCN RTIME RIDEP
 9 RE            100     1    20
@N HARVEST     HFRST HLAST HPCNP HPCNR
 9 HA              0 97365   100     0

@N GENERAL     NYERS NREPS START SDATE RSEED SNAME.................... SMODEL
10 GE              6     1     S 63001  2150 Rainfed                   MZCER
@N OPTIONS     WATER NITRO SYMBI PHOSP POTAS DISES  CHEM  TILL   CO2
10 OP              Y     Y     Y     N     N     N     N     N     M
@N METHODS     WTHER INCON LIGHT EVAPO INFIL PHOTO HYDRO NSWIT MESOM MESEV MESOL
10 ME              M     M     E     F     S     C     R     1     G     S     2
@N MANAGEMENT  PLANT IRRIG FERTI RESID HARVS
10 MA              A     N     D     A     M
@N OUTPUTS     FNAME OVVEW SUMRY FROPT GROUT CAOUT WAOUT NIOUT MIOUT DIOUT VBOSE CHOUT OPOUT
10 OU              N     Y     Y    14     N     N     N     N     N     N     N     N     N

@  AUTOMATIC MANAGEMENT
@N PLANTING    PFRST PLAST PH2OL PH2OU PH2OD PSTMX PSTMN
10 PL          63115 63175    40   100    30    40    10
@N IRRIGATION  IMDEP ITHRL ITHRU IROFF IMETH IRAMT IREFF
10 IR             40    50   100 GS000 IR001    10   .75
@N NITROGEN    NMDEP NMTHR NAMNT NCODE NAOFF
10 NI             30    10    50 FE001 GS000
@N RESIDUES    RIPCN RTIME RIDEP
10 RE            100     1    20
@N HARVEST     HFRST HLAST HPCNP HPCNR
10 HA              0 64365   100     0

@N GENERAL     NYERS NREPS START SDATE RSEED SNAME.................... SMODEL
11 GE              5     1     S 69001  2150 Rainfed                   MZCER
@N OPTIONS     WATER NITRO SYMBI PHOSP POTAS DISES  CHEM  TILL   CO2
11 OP              Y     Y     Y     N     N     N     N     N     M
@N METHODS     WTHER INCON LIGHT EVAPO INFIL PHOTO HYDRO NSWIT MESOM MESEV MESOL
11 ME              M     M     E     F     S     C     R     1     G     S     2
@N MANAGEMENT  PLANT IRRIG FERTI RESID HARVS
11 MA              A     N     D     A     M
@N OUTPUTS     FNAME OVVEW SUMRY FROPT GROUT CAOUT WAOUT NIOUT MIOUT DIOUT VBOSE CHOUT OPOUT
11 OU              N     Y     Y    14     N     N     N     N     N     N     N     N     N

@  AUTOMATIC MANAGEMENT
@N PLANTING    PFRST PLAST PH2OL PH2OU PH2OD PSTMX PSTMN
11 PL          69109 69169    40   100    30    40    10
@N IRRIGATION  IMDEP ITHRL ITHRU IROFF IMETH IRAMT IREFF
11 IR             40    50   100 GS000 IR001    10   .75
@N NITROGEN    NMDEP NMTHR NAMNT NCODE NAOFF
11 NI             30    10    50 FE001 GS000
@N RESIDUES    RIPCN RTIME RIDEP
11 RE            100     1    20
@N HARVEST     HFRST HLAST HPCNP HPCNR
11 HA              0 70365   100     0

@N GENERAL     NYERS NREPS START SDATE RSEED SNAME.................... SMODEL
12 GE              5     1     S 74001  2150 Rainfed                   MZCER
@N OPTIONS     WATER NITRO SYMBI PHOSP POTAS DISES  CHEM  TILL   CO2
12 OP              Y     Y     Y     N     N     N     N     N     M
@N METHODS     WTHER INCON LIGHT EVAPO INFIL PHOTO HYDRO NSWIT MESOM MESEV MESOL
12 ME              M     M     E     F     S     C     R     1     G     S     2
@N MANAGEMENT  PLANT IRRIG FERTI RESID HARVS
12 MA              A     N     D     A     M
@N OUTPUTS     FNAME OVVEW SUMRY FROPT GROUT CAOUT WAOUT NIOUT MIOUT DIOUT VBOSE CHOUT OPOUT
12 OU              N     Y     Y    14     N     N     N     N     N     N     N     N     N

@  AUTOMATIC MANAGEMENT
@N PLANTING    PFRST PLAST PH2OL PH2OU PH2OD PSTMX PSTMN
12 PL          74112 74172    40   100    30    40    10
@N IRRIGATION  IMDEP ITHRL ITHRU IROFF IMETH IRAMT IREFF
12 IR             40    50   100 GS000 IR001    10   .75
@N NITROGEN    NMDEP NMTHR NAMNT NCODE NAOFF
12 NI             30    10    50 FE001 GS000
@N RESIDUES    RIPCN RTIME RIDEP
12 RE            100     1    20
@N HARVEST     HFRST HLAST HPCNP HPCNR
12 HA              0 75365   100     0

@N GENERAL     NYERS NREPS START SDATE RSEED SNAME.................... SMODEL