*EXP.DETAILS:  p2012 pDSSAT maize NARR State 6, County 45

*GENERAL
@PEOPLE
Joshua Elliott
@ADDRESS
Computation Institute, University of Chicago
@SITE
latitude, longitude

@ PAREA  PRNO  PLEN  PLDR  PLSP  PLAY HAREA  HRNO  HLEN  HARM.........
    -99   -99   -99   -99   -99   -99   -99   -99   -99   -99

*TREATMENTS                        -------------FACTOR LEVELS------------
@N R O C TNAME.................... CU FL SA IC MP MI MF MR MC MT ME MH SM
 1 1 0 0 (Irri-pd1-1979)            3  1  0  1  8  0  1  0  0  0  0  0  1
 2 1 0 0 (Rain-pd1-1979)            3  1  0  1  1  0  1  0  0  0  0  0 10
 3 1 0 0 (Irri-pd2-1979)            2  1  0  1  8  0  1  0  0  0  0  0 19
 4 1 0 0 (Rain-pd2-1979)            2  1  0  1  1  0  1  0  0  0  0  0 28
 5 1 0 0 (Irri-pd3-1979)            2  1  0  1  8  0  1  0  0  0  0  0 37
 6 1 0 0 (Rain-pd3-1979)            2  1  0  1  1  0  1  0  0  0  0  0 46
 7 1 0 0 (Irri-pd4-1979)            2  1  0  1  8  0  1  0  0  0  0  0 55
 8 1 0 0 (Rain-pd4-1979)            2  1  0  1  1  0  1  0  0  0  0  0 64
 9 1 0 0 (Irri-pd5-1979)            1  1  0  1  8  0  1  0  0  0  0  0 73
10 1 0 0 (Rain-pd5-1979)            1  1  0  1  1  0  1  0  0  0  0  0 82

*CULTIVARS
@C CR INGENO CNAME
 1 MZ HY0011 HY11
 2 MZ HY0021 HY21
 3 MZ HY0031 HY31
 4 MZ HY0041 HY41
 5 MZ HY0051 HY51
 6 MZ HY0061 HY61
 7 MZ HY0071 HY71
 8 MZ HY0081 HY81
 9 MZ HY0091 HY91
10 MZ HY0101 HY01

*FIELDS
@L ID_FIELD WSTA....  FLSA  FLOB  FLDT  FLDD  FLDS  FLST SLTX  SLDP  ID_SOIL    FLNAME
 1 GENERIC  GENERIC1   -99   -99   -99   -99   -99   -99 -99    -99  XY01234567 Weather 1979-2012
@L ...........XCRD ...........YCRD .....ELEV .............AREA .SLEN .FLWR .SLAS FLHST FHDUR
 1             -99             -99       -99               -99   -99   -99   -99   -99   -99

*SOIL ANALYSIS
@A SADAT  SMHB  SMPX  SMKE  SANAME
 1 63100   -99   -99   -99  TEST
@A  SABL  SADM  SAOC  SANI SAPHW SAPHB  SAPX  SAKE  SASC
 1    15   -99   -99   -99   -99   -99   -99   -99   -99

*INITIAL CONDITIONS
@C   PCR ICDAT  ICRT  ICND  ICRN  ICRE  ICWD ICRES ICREN ICREP ICRIP ICRID ICNAME
 1    MZ 96001   -99   -99     1     1   -99  1000     1     0   100    10 1000kg Residue
@C  ICBL  SH2O  SNH4  SNO3
 1    10   -99    .1    .1
 1    40   -99    .1    .1
 1   100   -99    .1    .1
 1   200   -99    .1    .1

*PLANTING DETAILS
@P PDATE EDATE  PPOP  PPOE  PLME  PLDS  PLRS  PLRD  PLDP  PLWT  PAGE  PENV  PLPH  SPRL                        PLNAME
 1 63001   -99   5.0   5.0     S     R    75   -99     5   -99   -99   -99   -99   -99                        1979
 8 63001   -99   5.0   5.0     S     R    75   -99     5   -99   -99   -99   -99   -99                        1979I

*IRRIGATION AND WATER MANAGEMENT
@I  EFIR  IDEP  ITHR  IEPT  IOFF  IAME  IAMT IRNAME
 1  1.00    40    75   100 GS000 IR001    10 -99
@I IDATE  IROP IRVAL
 1   -99 IR001  79.0

*FERTILIZERS (INORGANIC)
@F FDATE  FMCD  FACD  FDEP  FAMN  FAMP  FAMK  FAMC  FAMO  FOCD FERNAME
 1     1 FE001 AP002    15    50   -99   -99   -99   -99   -99 high
 1    45 FE001 AP002    15   180   -99   -99   -99   -99   -99 high

*ENVIRONMENT MODIFICATIONS
@E ODATE EDAY  ERAD  EMAX  EMIN  ERAIN ECO2  EDEW  EWIND ENVNAME  
 1 63001 A   0 A   0 A   0 A   0 A 0.0 R 320 A   0 A   0 320 ppm 

*HARVEST DETAILS
@H HDATE  HSTG  HCOM HSIZE   HPC  HBPC HNAME
 1   -99   -99   -99   -99   -99   -99 Maize

*SIMULATION CONTROLS
!each of the treatments basically needs its own sim control, to change the start year and the planting windows. 
!1979-1984
@N GENERAL     NYERS NREPS START SDATE RSEED SNAME.................... SMODEL
 1 GE             34     1     S 63001  2150 Irrigated                 MZCER
@N OPTIONS     WATER NITRO SYMBI PHOSP POTAS DISES  CHEM  TILL   CO2
 1 OP              Y     Y     Y     N     N     N     N     N     M
@N METHODS     WTHER INCON LIGHT EVAPO INFIL PHOTO HYDRO NSWIT MESOM MESEV MESOL
 1 ME              M     M     E     F     S     C     R     1     G     S     2
@N MANAGEMENT  PLANT IRRIG FERTI RESID HARVS
 1 MA              A     A     D     A     M
@N OUTPUTS     FNAME OVVEW SUMRY FROPT GROUT CAOUT WAOUT NIOUT MIOUT DIOUT VBOSE CHOUT OPOUT
 1 OU              N     Y     Y    14     N     N     N     N     N     N     N     N     N

@  AUTOMATIC MANAGEMENT
@N PLANTING    PFRST PLAST PH2OL PH2OU PH2OD PSTMX PSTMN
 1 PL          63113 63173    40   100    30    40    10
@N IRRIGATION  IMDEP ITHRL ITHRU IROFF IMETH IRAMT IREFF
 1 IR             40    75   100 GS000 IR001    10   .75
@N NITROGEN    NMDEP NMTHR NAMNT NCODE NAOFF
 1 NI             30    10    50 FE001 GS000
@N RESIDUES    RIPCN RTIME RIDEP
 1 RE            100     1    20
@N HARVEST     HFRST HLAST HPCNP HPCNR
 1 HA              0 64365   100     0

@N GENERAL     NYERS NREPS START SDATE RSEED SNAME.................... SMODEL
10 GE             34     1     S 63001  2150 Rainfed                   MZCER
@N OPTIONS     WATER NITRO SYMBI PHOSP POTAS DISES  CHEM  TILL   CO2
10 OP              Y     Y     Y     N     N     N     N     N     M
@N METHODS     WTHER INCON LIGHT EVAPO INFIL PHOTO HYDRO NSWIT MESOM MESEV MESOL
10 ME              M     M     E     F     S     C     R     1     G     S     2
@N MANAGEMENT  PLANT IRRIG FERTI RESID HARVS
10 MA              A     N     D     A     M
@N OUTPUTS     FNAME OVVEW SUMRY FROPT GROUT CAOUT WAOUT NIOUT MIOUT DIOUT VBOSE CHOUT OPOUT
10 OU              N     Y     Y    14     N     N     N     N     N     N     N     N     N

@  AUTOMATIC MANAGEMENT
@N PLANTING    PFRST PLAST PH2OL PH2OU PH2OD PSTMX PSTMN
10 PL          63113 63173    40   100    30    40    10
@N IRRIGATION  IMDEP ITHRL ITHRU IROFF IMETH IRAMT IREFF
10 IR             40    75   100 GS000 IR001    10   .75
@N NITROGEN    NMDEP NMTHR NAMNT NCODE NAOFF
10 NI             30    10    50 FE001 GS000
@N RESIDUES    RIPCN RTIME RIDEP
10 RE            100     1    20
@N HARVEST     HFRST HLAST HPCNP HPCNR
10 HA              0 64365   100     0

@N GENERAL     NYERS NREPS START SDATE RSEED SNAME.................... SMODEL
19 GE             34     1     S 63001  2150 Irrigated                 MZCER
@N OPTIONS     WATER NITRO SYMBI PHOSP POTAS DISES  CHEM  TILL   CO2
19 OP              Y     Y     Y     N     N     N     N     N     M
@N METHODS     WTHER INCON LIGHT EVAPO INFIL PHOTO HYDRO NSWIT MESOM MESEV MESOL
19 ME              M     M     E     F     S     C     R     1     G     S     2
@N MANAGEMENT  PLANT IRRIG FERTI RESID HARVS
19 MA              A     A     D     A     M
@N OUTPUTS     FNAME OVVEW SUMRY FROPT GROUT CAOUT WAOUT NIOUT MIOUT DIOUT VBOSE CHOUT OPOUT
19 OU              N     Y     Y    14     N     N     N     N     N     N     N     N     N

@  AUTOMATIC MANAGEMENT
@N PLANTING    PFRST PLAST PH2OL PH2OU PH2OD PSTMX PSTMN
19 PL          63120 63180    40   100    30    40    10
@N IRRIGATION  IMDEP ITHRL ITHRU IROFF IMETH IRAMT IREFF
19 IR             40    75   100 GS000 IR001    10   .75
@N NITROGEN    NMDEP NMTHR NAMNT NCODE NAOFF
19 NI             30    10    50 FE001 GS000
@N RESIDUES    RIPCN RTIME RIDEP
19 RE            100     1    20
@N HARVEST     HFRST HLAST HPCNP HPCNR
19 HA              0 64365   100     0


@N GENERAL     NYERS NREPS START SDATE RSEED SNAME.................... SMODEL
28 GE             34     1     S 63001  2150 Rainfed                   MZCER
@N OPTIONS     WATER NITRO SYMBI PHOSP POTAS DISES  CHEM  TILL   CO2
28 OP              Y     Y     Y     N     N     N     N     N     M
@N METHODS     WTHER INCON LIGHT EVAPO INFIL PHOTO HYDRO NSWIT MESOM MESEV MESOL
28 ME              M     M     E     F     S     C     R     1     G     S     2
@N MANAGEMENT  PLANT IRRIG FERTI RESID HARVS
28 MA              A     N     D     A     M
@N OUTPUTS     FNAME OVVEW SUMRY FROPT GROUT CAOUT WAOUT NIOUT MIOUT DIOUT VBOSE CHOUT OPOUT
28 OU              N     Y     Y    14     N     N     N     N     N     N     N     N     N

@  AUTOMATIC MANAGEMENT
@N PLANTING    PFRST PLAST PH2OL PH2OU PH2OD PSTMX PSTMN
28 PL          63120 63180    40   100    30    40    10
@N IRRIGATION  IMDEP ITHRL ITHRU IROFF IMETH IRAMT IREFF
28 IR             40    75   100 GS000 IR001    10   .75
@N NITROGEN    NMDEP NMTHR NAMNT NCODE NAOFF
28 NI             30    10    50 FE001 GS000
@N RESIDUES    RIPCN RTIME RIDEP
28 RE            100     1    20
@N HARVEST     HFRST HLAST HPCNP HPCNR
28 HA              0 64365   100     0

@N GENERAL     NYERS NREPS START SDATE RSEED SNAME.................... SMODEL
37 GE             34     1     S 63001  2150 Irrigated                 MZCER
@N OPTIONS     WATER NITRO SYMBI PHOSP POTAS DISES  CHEM  TILL   CO2
37 OP              Y     Y     Y     N     N     N     N     N     M
@N METHODS     WTHER INCON LIGHT EVAPO INFIL PHOTO HYDRO NSWIT MESOM MESEV MESOL
37 ME              M     M     E     F     S     C     R     1     G     S     2
@N MANAGEMENT  PLANT IRRIG FERTI RESID HARVS
37 MA              A     A     D     A     M
@N OUTPUTS     FNAME OVVEW SUMRY FROPT GROUT CAOUT WAOUT NIOUT MIOUT DIOUT VBOSE CHOUT OPOUT
37 OU              N     Y     Y    14     N     N     N     N     N     N     N     N     N

@  AUTOMATIC MANAGEMENT
@N PLANTING    PFRST PLAST PH2OL PH2OU PH2OD PSTMX PSTMN
37 PL          63126 63186    40   100    30    40    10
@N IRRIGATION  IMDEP ITHRL ITHRU IROFF IMETH IRAMT IREFF
37 IR             40    75   100 GS000 IR001    10   .75
@N NITROGEN    NMDEP NMTHR NAMNT NCODE NAOFF
37 NI             30    10    50 FE001 GS000
@N RESIDUES    RIPCN RTIME RIDEP
37 RE            100     1    20
@N HARVEST     HFRST HLAST HPCNP HPCNR
37 HA              0 64365   100     0

@N GENERAL     NYERS NREPS START SDATE RSEED SNAME.................... SMODEL
46 GE             34     1     S 63001  2150 Rainfed                   MZCER
@N OPTIONS     WATER NITRO SYMBI PHOSP POTAS DISES  CHEM  TILL   CO2
46 OP              Y     Y     Y     N     N     N     N     N     M
@N METHODS     WTHER INCON LIGHT EVAPO INFIL PHOTO HYDRO NSWIT MESOM MESEV MESOL
46 ME              M     M     E     F     S     C     R     1     G     S     2
@N MANAGEMENT  PLANT IRRIG FERTI RESID HARVS
46 MA              A     N     D     A     M
@N OUTPUTS     FNAME OVVEW SUMRY FROPT GROUT CAOUT WAOUT NIOUT MIOUT DIOUT VBOSE CHOUT OPOUT
46 OU              N     Y     Y    14     N     N     N     N     N     N     N     N     N

@  AUTOMATIC MANAGEMENT
@N PLANTING    PFRST PLAST PH2OL PH2OU PH2OD PSTMX PSTMN
46 PL          63126 63186    40   100    30    40    10
@N IRRIGATION  IMDEP ITHRL ITHRU IROFF IMETH IRAMT IREFF
46 IR             40    75   100 GS000 IR001    10   .75
@N NITROGEN    NMDEP NMTHR NAMNT NCODE NAOFF
46 NI             30    10    50 FE001 GS000
@N RESIDUES    RIPCN RTIME RIDEP
46 RE            100     1    20
@N HARVEST     HFRST HLAST HPCNP HPCNR
46 HA              0 64365   100     0

@N GENERAL     NYERS NREPS START SDATE RSEED SNAME.................... SMODEL
55 GE             34     1     S 63001  2150 Irrigated                 MZCER
@N OPTIONS     WATER NITRO SYMBI PHOSP POTAS DISES  CHEM  TILL   CO2
55 OP              Y     Y     Y     N     N     N     N     N     M
@N METHODS     WTHER INCON LIGHT EVAPO INFIL PHOTO HYDRO NSWIT MESOM MESEV MESOL
55 ME              M     M     E     F     S     C     R     1     G     S     2
@N MANAGEMENT  PLANT IRRIG FERTI RESID HARVS
55 MA              A     A     D     A     M
@N OUTPUTS     FNAME OVVEW SUMRY FROPT GROUT CAOUT WAOUT NIOUT MIOUT DIOUT VBOSE CHOUT OPOUT
55 OU              N     Y     Y    14     N     N     N     N     N     N     N     N     N

@  AUTOMATIC MANAGEMENT
@N PLANTING    PFRST PLAST PH2OL PH2OU PH2OD PSTMX PSTMN
55 PL          63132 63192    40   100    30    40    10
@N IRRIGATION  IMDEP ITHRL ITHRU IROFF IMETH IRAMT IREFF
55 IR             40    75   100 GS000 IR001    10   .75
@N NITROGEN    NMDEP NMTHR NAMNT NCODE NAOFF
55 NI             30    10    50 FE001 GS000
@N RESIDUES    RIPCN RTIME RIDEP
55 RE            100     1    20
@N HARVEST     HFRST HLAST HPCNP HPCNR
55 HA              0 64365   100     0

@N GENERAL     NYERS NREPS START SDATE RSEED SNAME.................... SMODEL
64 GE             34     1     S 63001  2150 Rainfed                   MZCER
@N OPTIONS     WATER NITRO SYMBI PHOSP POTAS DISES  CHEM  TILL   CO2
64 OP              Y     Y     Y     N     N     N     N     N     M
@N METHODS     WTHER INCON LIGHT EVAPO INFIL PHOTO HYDRO NSWIT MESOM MESEV MESOL
64 ME              M     M     E     F     S     C     R     1     G     S     2
@N MANAGEMENT  PLANT IRRIG FERTI RESID HARVS
64 MA              A     N     D     A     M
@N OUTPUTS     FNAME OVVEW SUMRY FROPT GROUT CAOUT WAOUT NIOUT MIOUT DIOUT VBOSE CHOUT OPOUT
64 OU              N     Y     Y    14     N     N     N     N     N     N     N     N     N

@  AUTOMATIC MANAGEMENT
@N PLANTING    PFRST PLAST PH2OL PH2OU PH2OD PSTMX PSTMN
64 PL          63132 63192    40   100    30    40    10
@N IRRIGATION  IMDEP ITHRL ITHRU IROFF IMETH IRAMT IREFF
64 IR             40    75   100 GS000 IR001    10   .75
@N NITROGEN    NMDEP NMTHR NAMNT NCODE NAOFF
64 NI             30    10    50 FE001 GS000
@N RESIDUES    RIPCN RTIME RIDEP
64 RE            100     1    20
@N HARVEST     HFRST HLAST HPCNP HPCNR
64 HA              0 64365   100     0

@N GENERAL     NYERS NREPS START SDATE RSEED SNAME.................... SMODEL
73 GE             34     1     S 63001  2150 Irrigated                 MZCER
@N OPTIONS     WATER NITRO SYMBI PHOSP POTAS DISES  CHEM  TILL   CO2
73 OP              Y     Y     Y     N     N     N     N     N     M
@N METHODS     WTHER INCON LIGHT EVAPO INFIL PHOTO HYDRO NSWIT MESOM MESEV MESOL
73 ME              M     M     E     F     S     C     R     1     G     S     2
@N MANAGEMENT  PLANT IRRIG FERTI RESID HARVS
73 MA              A     A     D     A     M
@N OUTPUTS     FNAME OVVEW SUMRY FROPT GROUT CAOUT WAOUT NIOUT MIOUT DIOUT VBOSE CHOUT OPOUT
73 OU              N     Y     Y    14     N     N     N     N     N     N     N     N     N

@  AUTOMATIC MANAGEMENT
@N PLANTING    PFRST PLAST PH2OL PH2OU PH2OD PSTMX PSTMN
73 PL          63144 63204    40   100    30    40    10
@N IRRIGATION  IMDEP ITHRL ITHRU IROFF IMETH IRAMT IREFF
73 IR             40    75   100 GS000 IR001    10   .75
@N NITROGEN    NMDEP NMTHR NAMNT NCODE NAOFF
73 NI             30    10    50 FE001 GS000
@N RESIDUES    RIPCN RTIME RIDEP
73 RE            100     1    20
@N HARVEST     HFRST HLAST HPCNP HPCNR
73 HA              0 64365   100     0

@N GENERAL     NYERS NREPS START SDATE RSEED SNAME.................... SMODEL
82 GE             34     1     S 63001  2150 Rainfed                   MZCER
@N OPTIONS     WATER NITRO SYMBI PHOSP POTAS DISES  CHEM  TILL   CO2
82 OP              Y     Y     Y     N     N     N     N     N     M
@N METHODS     WTHER INCON LIGHT EVAPO INFIL PHOTO HYDRO NSWIT MESOM MESEV MESOL
82 ME              M     M     E     F     S     C     R     1     G     S     2
@N MANAGEMENT  PLANT IRRIG FERTI RESID HARVS
82 MA              A     N     D     A     M
@N OUTPUTS     FNAME OVVEW SUMRY FROPT GROUT CAOUT WAOUT NIOUT MIOUT DIOUT VBOSE CHOUT OPOUT
82 OU              N     Y     Y    14     N     N     N     N     N     N     N     N     N

@  AUTOMATIC MANAGEMENT
@N PLANTING    PFRST PLAST PH2OL PH2OU PH2OD PSTMX PSTMN
82 PL          63144 63204    40   100    30    40    10
@N IRRIGATION  IMDEP ITHRL ITHRU IROFF IMETH IRAMT IREFF
82 IR             40    75   100 GS000 IR001    10   .75
@N NITROGEN    NMDEP NMTHR NAMNT NCODE NAOFF
82 NI             30    10    50 FE001 GS000
@N RESIDUES    RIPCN RTIME RIDEP
82 RE            100     1    20
@N HARVEST     HFRST HLAST HPCNP HPCNR
82 HA              0 64365   100     0