*MODEL INPUT FILE            A   421     1    16    16     0
*FILES              
MODEL          MZCER040    
FILEX          R1234567.MZX
FILEA          R1234567.MZA
FILET          R1234567.MZT
SPECIES        MZCER040.SPE                                                                                 
ECOTYPE        MZCER040.ECO                                                                                 
CULTIVAR       MZCER040.CUL                                                                                 
PESTS          MZCER040.PST /                                                                               
SOILS          SOIL.SOL                                                                                     
WEATHER        GENERIC2.WTH                                                                                 
OUTPUT         OVERVIEW
*SIMULATION CONTROL 
                  28     1     S 2000001  2150 Rainfed                   MZCER
                   Y     Y     N     N     N     N     N     N
                   M     M     E     F     S     C     R     1     G
                   A     N     D     A     M
                   N     N     Y    14     N     N     N     N     N     N     N     N     N
!AUTOMATIC MANAGEM  
               2000050 2000200   40.  100.   30.   40.   10.
                 40.   70.   90. GS000 IR001  10.0 0.750
                 30.   10.   50. FE001 GS000
                100.     1   20.
                     0 2001125  100.    0.
*EXP.DETAILS        
  1R1234567 MZ  template, A1B CO2                                          
*TREATMENTS         
 16 1 0 0 550p_No_N_no_H2O         
*CULTIVARS          
   MZ 990002 MEDIUM SEASON   
*FIELDS             
   GENERIC  GENERIC2   0.0  -99.   -99  -99.  100.   -99 L      -99. XY01234567
         -99.00000       -99.00000    -99.00               1.0  100.   1.0 -99.0
*INITIAL CONDITIONS 
               0    0.    0.  1.00  1.00   0.0     0  0.00  0.00  100.    0.
      5. 0.250   0.1   0.1
     15. 0.250   0.1   0.1
     30. 0.250   0.1   0.1
     45. 0.299   0.1   0.1
     60. 0.299   0.1   0.1
     80. 0.299   0.1   0.1
    100. 0.299   0.1   0.1
*PLANTING DETAILS   
   2000120     -99   6.5   6.5     S     R   91.  -99.   5.0  -99.  -99. -99.0 -99.0 -99.0
*IRRIGATION         
   1.000    0.    0.    0. GS000 IR001   0.0
*FERTILIZERS        
         1 FE001 AP002   15.    0.  -99.  -99.  -99.  -99.   -99
*RESIDUES           
         1 RE001  1000  1.00  0.00  0.00  100.   15. AP003
*CHEMICALS          
*TILLAGE            
*ENVIRONMENT        
   2000001 A 0.0 A 0.0 A 0.0 A 0.0 A 0.0 R 550 A 0.0 A 0.0
*HARVEST            
*SOIL               
 XY01234567  HWSD        L      -99. HWSD DATABASE, SOIL 4893                          
 Generic     Generic      -0.009  -0.099 Unknown                                           
    BN  0.13   9.6  0.40   73.  1.00  1.00 SA001 SA001 SA001      
    5.       0.115 0.250 0.427 1.000 2.010  1.41  0.82  21.0  32.0   4.0-9.000  6.20-99.00 11.00-99.00
   15.       0.115 0.250 0.427 1.000 2.010  1.41  0.82  21.0  32.0   4.0-9.000  6.20-99.00 11.00-99.00
   30.       0.115 0.250 0.427 0.638 2.010  1.41  0.82  21.0  32.0   4.0-9.000  6.20-99.00 11.00-99.00
   45.       0.206 0.299 0.448 0.353 0.925  1.34  0.39  31.0  29.0   5.0-9.000  6.20-99.00 12.00-99.00
   60.       0.206 0.299 0.448 0.353 0.925  1.34  0.39  31.0  29.0   5.0-9.000  6.20-99.00 12.00-99.00
   80.       0.206 0.299 0.448 0.353 0.925  1.34  0.39  31.0  29.0   5.0-9.000  6.20-99.00 12.00-99.00
  100.       0.206 0.299 0.448 0.353 0.925  1.34  0.39  31.0  29.0   5.0-9.000  6.20-99.00 12.00-99.00
                    
    5. -99.0 -99.0 -99.0   0.0 -99.0 -99.0 -99.0  88.0 -99.0 -99.0 -99.0 -99.0   0.1 -99.0 -99.0
   15. -99.0 -99.0 -99.0   0.0 -99.0 -99.0 -99.0  88.0 -99.0 -99.0 -99.0 -99.0   0.1 -99.0 -99.0
   30. -99.0 -99.0 -99.0   0.0 -99.0 -99.0 -99.0  88.0 -99.0 -99.0 -99.0 -99.0   0.1 -99.0 -99.0
   45. -99.0 -99.0 -99.0   0.0 -99.0 -99.0 -99.0  87.0 -99.0 -99.0 -99.0 -99.0   0.1 -99.0 -99.0
   60. -99.0 -99.0 -99.0   0.0 -99.0 -99.0 -99.0  87.0 -99.0 -99.0 -99.0 -99.0   0.1 -99.0 -99.0
   80. -99.0 -99.0 -99.0   0.0 -99.0 -99.0 -99.0  87.0 -99.0 -99.0 -99.0 -99.0   0.1 -99.0 -99.0
  100. -99.0 -99.0 -99.0   0.0 -99.0 -99.0 -99.0  87.0 -99.0 -99.0 -99.0 -99.0   0.1 -99.0 -99.0
*CULTIVAR           
990002 MEDIUM SEASON    IB0001  200.0 0.300 800.0 700.0  8.50 38.90
