*EXP.DETAILS:  Adaptation template, A1B CO2

*GENERAL
@PEOPLE
Joshua Elliott
@ADDRESS
Computation Institute, University of Chicago
@SITE
-99
@ PAREA  PRNO  PLEN  PLDR  PLSP  PLAY HAREA  HRNO  HLEN  HARM.........
    -99   -99   -99   -99   -99   -99   -99   -99   -99   -99

*TREATMENTS                        -------------FACTOR LEVELS------------
@N R O C TNAME.................... CU FL SA IC MP MI MF MR MC MT ME MH SM
 1 1 0 0 350p_Full_N_full_H2O       1  1  0  0  1  0  1  1  0  0  1  0  1
 2 1 0 0 550p_Full_N_full_H2O       1  2  0  0  1  0  1  1  0  0  2  0  1
 3 1 0 0 350p_2/3_N_full_H20        1  1  0  0  1  0  2  1  0  0  1  0  1
 4 1 0 0 550p_2/3_N_full_H20        1  2  0  0  1  0  2  1  0  0  2  0  1
 5 1 0 0 350p_1/3_N_full_H20        1  1  0  0  1  0  3  1  0  0  1  0  1
 6 1 0 0 550p_1/3_N_full_H20        1  2  0  0  1  0  3  1  0  0  2  0  1
 7 1 0 0 350p_No_N_full_H20         1  1  0  0  1  0  4  1  0  0  1  0  1
 8 1 0 0 550p_No_N_full_H20         1  2  0  0  1  0  4  1  0  0  2  0  1
 9 1 0 0 350p_Full_N_no_H20         1  1  0  0  1  0  1  1  0  0  1  0  2
10 1 0 0 550p_Full_N_no_H20         1  2  0  0  1  0  1  1  0  0  2  0  2
11 1 0 0 350p_2/3_N_no_H20          1  1  0  0  1  0  2  1  0  0  1  0  2
12 1 0 0 550p_2/3_N_no_H20          1  2  0  0  1  0  2  1  0  0  2  0  2
13 1 0 0 350p_1/3_N_no_H20          1  1  0  0  1  0  3  1  0  0  1  0  2
14 1 0 0 550p_1/3_N_no_H20          1  2  0  0  1  0  3  1  0  0  2  0  2
15 1 0 0 350p_No_N_no_H2O           1  1  0  0  1  0  4  1  0  0  1  0  2
16 1 0 0 550p_No_N_no_H2O           1  2  0  0  1  0  4  1  0  0  2  0  2

*CULTIVARS
@C CR INGENO CNAME
 1 MZ 990002 TEST

*FIELDS
@L ID_FIELD WSTA....  FLSA  FLOB  FLDT  FLDD  FLDS  FLST SLTX  SLDP  ID_SOIL    FLNAME
 1 GENERIC  GENERIC1   -99   -99   -99   -99   -99   -99 -99    -99  XY01234567 Weather 1971-1998
 2 GENERIC  GENERIC2   -99   -99   -99   -99   -99   -99 -99    -99  XY01234567 Weather 2041-2068
@L ...........XCRD ...........YCRD .....ELEV .............AREA .SLEN .FLWR .SLAS FLHST FHDUR
 1             -99             -99       -99               -99   -99   -99   -99   -99   -99
 2             -99             -99       -99               -99   -99   -99   -99   -99   -99

*SOIL ANALYSIS
@A SADAT  SMHB  SMPX  SMKE  SANAME
 1 00100   -99   -99   -99  TEST
@A  SABL  SADM  SAOC  SANI SAPHW SAPHB  SAPX  SAKE  SASC
 1    15   -99   -99   -99   -99   -99   -99   -99   -99

*INITIAL CONDITIONS
@C   PCR ICDAT  ICRT  ICND  ICRN  ICRE  ICWD ICRES ICREN ICREP ICRIP ICRID ICNAME
 1    MZ 00100   -99   -99     1     1   -99  1000     1     0   100    10 1000kg Residue
@C  ICBL  SH2O  SNH4  SNO3
 1     5  .198    .1    .7
 1    15  .198    .1    .7
 1    25  .198    .1    .7
 1    34  .226    .1    .7
 1    43  .226    .1    .7
 1    53   .25    .1    .7
 1    64   .25    .1    .7
 1   102  .200    .1    .7
 1   145  .291    .1    .7
 1   175  .272    .1    .7
 1   203  .263    .1    .7

*PLANTING DETAILS
@P PDATE EDATE  PPOP  PPOE  PLME  PLDS  PLRS  PLRD  PLDP  PLWT  PAGE  PENV  PLPH  SPRL                        PLNAME
 1 00120   -99   6.5   -99     S     R    91   -99     5   -99   -99   -99   -99   -99                        Apr 30 Rainfed

*IRRIGATION AND WATER MANAGEMENT
@I  EFIR  IDEP  ITHR  IEPT  IOFF  IAME  IAMT IRNAME
 1  1.00    30    50   100 GS000 IR001    10 -99
@I IDATE  IROP IRVAL
 1 00165 IR001  79.0

*FERTILIZERS (INORGANIC)
@F FDATE  FMCD  FACD  FDEP  FAMN  FAMP  FAMK  FAMC  FAMO  FOCD FERNAME
 1     1 FE001 AP002    15    50   -99   -99   -99   -99   -99 TEST
 1    40 FE001 AP002    15    50   -99   -99   -99   -99   -99 TEST
 1    80 FE001 AP002    15    50   -99   -99   -99   -99   -99 TEST
 2     1 FE001 AP002    15    50   -99   -99   -99   -99   -99 TEST
 2    40 FE001 AP002    15    50   -99   -99   -99   -99   -99 TEST
 3     1 FE001 AP002    15    50   -99   -99   -99   -99   -99 TEST
 4     1 FE001 AP002    15     0   -99   -99   -99   -99   -99 TEST

*RESIDUES AND ORGANIC FERTILIZER
@R RDATE  RCOD  RAMT  RESN  RESP  RESK  RINP  RDEP  RMET RENAME
 1 00001 RE001  1000     1     0     0   100    10 AP003 1000 kg residue

*CHEMICAL APPLICATIONS
@C CDATE CHCOD CHAMT  CHME CHDEP   CHT..CHNAME
 1 00126 CH009   100 AP002    10   -99  TEST

*TILLAGE AND ROTATIONS
@T TDATE TIMPL  TDEP TNAME
 1 00126 TI007    20 TEST

*ENVIRONMENT MODIFICATIONS
@E ODATE EDAY  ERAD  EMAX  EMIN  ERAIN ECO2  EDEW  EWIND ENVNAME  
 1 00001 A   0 A   0 A   0 A   0 A 0.0 R 350 A   0 A   0 350 ppm 
 2 00001 A   0 A   0 A   0 A   0 A 0.0 R 550 A   0 A   0 550 ppm 

*HARVEST DETAILS
@H HDATE  HSTG  HCOM HSIZE   HPC  HBPC HNAME
 1 00270 GS000   -99   -99   -99   -99 Maize

*SIMULATION CONTROLS
@N GENERAL     NYERS NREPS START SDATE RSEED SNAME.................... SMODEL
 1 GE             28     1     S 00001  2150 Rainfed                   MZCER
@N OPTIONS     WATER NITRO SYMBI PHOSP POTAS DISES  CHEM  TILL   CO2
 1 OP              Y     Y     Y     N     N     N     N     N     R
@N METHODS     WTHER INCON LIGHT EVAPO INFIL PHOTO HYDRO NSWIT MESOM MESEV MESOL
 1 ME              M     M     E     F     S     L     R     1     G     S     2
@N MANAGEMENT  PLANT IRRIG FERTI RESID HARVS
 1 MA              A     A     D     A     M
@N OUTPUTS     FNAME OVVEW SUMRY FROPT GROUT CAOUT WAOUT NIOUT MIOUT DIOUT VBOSE CHOUT OPOUT
 1 OU              N     N     Y    14     N     N     N     N     N     N     N     N     N

@  AUTOMATIC MANAGEMENT
@N PLANTING    PFRST PLAST PH2OL PH2OU PH2OD PSTMX PSTMN
 1 PL          00050 00200    40   100    30    40    10
@N IRRIGATION  IMDEP ITHRL ITHRU IROFF IMETH IRAMT IREFF
 1 IR             40    80   100 GS000 IR001    10   .75
@N NITROGEN    NMDEP NMTHR NAMNT NCODE NAOFF
 1 NI             30    10    50 FE001 GS000
@N RESIDUES    RIPCN RTIME RIDEP
 1 RE            100     1    20
@N HARVEST     HFRST HLAST HPCNP HPCNR
 1 HA              0 01125   100     0

@N GENERAL     NYERS NREPS START SDATE RSEED SNAME.................... SMODEL
 2 GE             28     1     S 00001  2150 Rainfed                   MZCER
@N OPTIONS     WATER NITRO SYMBI PHOSP POTAS DISES  CHEM  TILL   CO2
 2 OP              Y     Y     Y     N     N     N     N     N     R
@N METHODS     WTHER INCON LIGHT EVAPO INFIL PHOTO HYDRO NSWIT MESOM MESEV MESOL
 2 ME              M     M     E     F     S     L     R     1     G     S     2
@N MANAGEMENT  PLANT IRRIG FERTI RESID HARVS
 2 MA              A     N     D     A     M
@N OUTPUTS     FNAME OVVEW SUMRY FROPT GROUT CAOUT WAOUT NIOUT MIOUT DIOUT VBOSE CHOUT OPOUT
 2 OU              N     N     Y    14     N     N     N     N     N     N     N     N     N

@  AUTOMATIC MANAGEMENT
@N PLANTING    PFRST PLAST PH2OL PH2OU PH2OD PSTMX PSTMN
 2 PL          00050 00200    40   100    30    40    10
@N IRRIGATION  IMDEP ITHRL ITHRU IROFF IMETH IRAMT IREFF
 2 IR             40    70    90 GS000 IR001    10   .75
@N NITROGEN    NMDEP NMTHR NAMNT NCODE NAOFF
 2 NI             30    10    50 FE001 GS000
@N RESIDUES    RIPCN RTIME RIDEP
 2 RE            100     1    20
@N HARVEST     HFRST HLAST HPCNP HPCNR
 2 HA              0 01125   100     0
