*EXP.DETAILS: X1234567MZ GenericName                                                 

*GENERAL
@PEOPLE
 Joshua Elliott                                                             
@ADDRESS
 Computation Institute, University of Chicago                               
@SITE
 62.75, 114.25                                                              

*TREATMENTS                        -------------FACTOR LEVELS------------
@N R O C TNAME.................... CU FL SA IC MP MI MF MR MC MT ME MH SM
 1 1 0 0 RF_Harm_N-Pl               1  1  0  1  1  1  1  0  0  0  0  1  1
 2 1 0 0 IR_Harm_N-Pl               1  1  0  1  1  1  1  0  0  0  0  1  2
 3 1 0 0 RF_Default_N-Pl            1  1  0  1  1  1  1  0  0  0  0  1  3
 4 1 0 0 IR_Default_N-Pl            1  1  0  1  1  1  1  0  0  0  0  1  4

*CULTIVARS
@C CR INGENO CNAME
 1 MZ HY0001 HY01            

*FIELDS
@L ID_FIELD WSTA....  FLSA  FLOB  FLDT  FLDD  FLDS  FLST SLTX  SLDP  ID_SOIL    FLNAME
 1 GENERIC  GENERIC1   -99   -99 -99     -99   -99 -99   -99     -99 XY01234567 GenericField1
@L ...........XCRD ...........YCRD .....ELEV .............AREA .SLEN .FLWR .SLAS FLHST FHDUR
 1          -99.00          -99.00       -99               -99 -99     -99   -99   -99   -99

*INITIAL CONDITIONS
@C   PCR ICDAT  ICRT  ICND  ICRN  ICRE  ICWD ICRES ICREN ICREP ICRIP ICRID ICNAME
 1    MZ 80001   -99   -99     1     1   -99  1000  1.00  0.00   100    10 1000kg Residue
@C  ICBL  SH2O  SNH4  SNO3
 1    10 -99.0    .1   0.1
 1    40 -99.0    .1   0.1
 1   100 -99.0    .1   0.1
 1   200 -99.0    .1   0.1

*PLANTING DETAILS
@P PDATE EDATE  PPOP  PPOE  PLME  PLDS  PLRS  PLRD  PLDP  PLWT  PAGE  PENV  PLPH  SPRL                        PLNAME
 1 80001   -99   5.0   5.0     S     R    75   -99   5.0   -99   -99 -99.0 -99.0   -99                        GENERIC

*IRRIGATION AND WATER MANAGEMENT
@I  EFIR  IDEP  ITHR  IEPT  IOFF  IAME  IAMT IRNAME
 1  1.00    40    75   100 GS000 IR001    10 -99
@I IDATE  IROP IRVAL
 1 11001 IR001    79

*FERTILIZERS (INORGANIC)
@F FDATE  FMCD  FACD  FDEP  FAMN  FAMP  FAMK  FAMC  FAMO  FOCD FERNAME
 1     1 FE001 AP002    15     7   -99   -99   -99   -99   -99 high
 1    45 FE001 AP002    15     7   -99   -99   -99   -99   -99 high

*HARVEST DETAILS
@H HDATE  HSTG  HCOM HSIZE   HPC  HBPC HNAME
 1 81365 -99   -99   -99     -99   -99 Maize

*SIMULATION CONTROLS
@N GENERAL     NYERS NREPS START SDATE RSEED SNAME.................... SMODEL
 1 GE             31     1     S 80001  2150 Irrigated                 MZCER
@N OPTIONS     WATER NITRO SYMBI PHOSP POTAS DISES  CHEM  TILL   CO2
 1 OP              Y     Y     Y     N     N     N     N     N     M
@N METHODS     WTHER INCON LIGHT EVAPO INFIL PHOTO HYDRO NSWIT MESOM MESEV MESOL
 1 ME              M     M     E     F     S     L     R     1     G     S     2
@N MANAGEMENT  PLANT IRRIG FERTI RESID HARVS
 1 MA              A     N     D     A     M
@N OUTPUTS     FNAME OVVEW SUMRY FROPT GROUT CAOUT WAOUT NIOUT MIOUT DIOUT VBOSE CHOUT OPOUT
 1 OU              N     Y     Y    14     N     N     N     N     N     N     N     N     N

@  AUTOMATIC MANAGEMENT
@N PLANTING    PFRST PLAST PH2OL PH2OU PH2OD PSTMX PSTMN
 1 PL          80148 80208    40   100    30    40    10
@N IRRIGATION  IMDEP ITHRL ITHRU IROFF IMETH IRAMT IREFF
 1 IR             40    75   100 GS000 IR001    10  0.75
@N NITROGEN    NMDEP NMTHR NAMNT NCODE NAOFF
 1 NI             30    10    50 FE001 GS000
@N RESIDUES    RIPCN RTIME RIDEP
 1 RE            100     1    20
@N HARVEST     HFRST HLAST HPCNP HPCNR
 1 HA              0 81365   100     0

@N GENERAL     NYERS NREPS START SDATE RSEED SNAME.................... SMODEL
 2 GE             31     1     S 80001  2150 Irrigated                 MZCER
@N OPTIONS     WATER NITRO SYMBI PHOSP POTAS DISES  CHEM  TILL   CO2
 2 OP              Y     Y     Y     N     N     N     N     N     M
@N METHODS     WTHER INCON LIGHT EVAPO INFIL PHOTO HYDRO NSWIT MESOM MESEV MESOL
 2 ME              M     M     E     F     S     L     R     1     G     S     2
@N MANAGEMENT  PLANT IRRIG FERTI RESID HARVS
 2 MA              A     A     D     A     M
@N OUTPUTS     FNAME OVVEW SUMRY FROPT GROUT CAOUT WAOUT NIOUT MIOUT DIOUT VBOSE CHOUT OPOUT
 2 OU              N     Y     Y    14     N     N     N     N     N     N     N     N     N

@  AUTOMATIC MANAGEMENT
@N PLANTING    PFRST PLAST PH2OL PH2OU PH2OD PSTMX PSTMN
 2 PL          80148 80208    40   100    30    40    10
@N IRRIGATION  IMDEP ITHRL ITHRU IROFF IMETH IRAMT IREFF
 2 IR             40    75   100 GS000 IR001    10  0.75
@N NITROGEN    NMDEP NMTHR NAMNT NCODE NAOFF
 2 NI             30    10    50 FE001 GS000
@N RESIDUES    RIPCN RTIME RIDEP
 2 RE            100     1    20
@N HARVEST     HFRST HLAST HPCNP HPCNR
 2 HA              0 81365   100     0

@N GENERAL     NYERS NREPS START SDATE RSEED SNAME.................... SMODEL
 3 GE             31     1     S 80001  2150 Irrigated                 MZCER
@N OPTIONS     WATER NITRO SYMBI PHOSP POTAS DISES  CHEM  TILL   CO2
 3 OP              Y     Y     Y     N     N     N     N     N     M
@N METHODS     WTHER INCON LIGHT EVAPO INFIL PHOTO HYDRO NSWIT MESOM MESEV MESOL
 3 ME              M     M     E     F     S     L     R     1     G     S     2
@N MANAGEMENT  PLANT IRRIG FERTI RESID HARVS
 3 MA              A     N     D     A     M
@N OUTPUTS     FNAME OVVEW SUMRY FROPT GROUT CAOUT WAOUT NIOUT MIOUT DIOUT VBOSE CHOUT OPOUT
 3 OU              N     Y     Y    14     N     N     N     N     N     N     N     N     N

@  AUTOMATIC MANAGEMENT
@N PLANTING    PFRST PLAST PH2OL PH2OU PH2OD PSTMX PSTMN
 3 PL          80120 80180    40   100    30    40    10
@N IRRIGATION  IMDEP ITHRL ITHRU IROFF IMETH IRAMT IREFF
 3 IR             40    75   100 GS000 IR001    10  0.75
@N NITROGEN    NMDEP NMTHR NAMNT NCODE NAOFF
 3 NI             30    10    50 FE001 GS000
@N RESIDUES    RIPCN RTIME RIDEP
 3 RE            100     1    20
@N HARVEST     HFRST HLAST HPCNP HPCNR
 3 HA              0 81365   100     0

@N GENERAL     NYERS NREPS START SDATE RSEED SNAME.................... SMODEL
 4 GE             31     1     S 80001  2150 Irrigated                 MZCER
@N OPTIONS     WATER NITRO SYMBI PHOSP POTAS DISES  CHEM  TILL   CO2
 4 OP              Y     Y     Y     N     N     N     N     N     M
@N METHODS     WTHER INCON LIGHT EVAPO INFIL PHOTO HYDRO NSWIT MESOM MESEV MESOL
 4 ME              M     M     E     F     S     L     R     1     G     S     2
@N MANAGEMENT  PLANT IRRIG FERTI RESID HARVS
 4 MA              A     A     D     A     M
@N OUTPUTS     FNAME OVVEW SUMRY FROPT GROUT CAOUT WAOUT NIOUT MIOUT DIOUT VBOSE CHOUT OPOUT
 4 OU              N     Y     Y    14     N     N     N     N     N     N     N     N     N

@  AUTOMATIC MANAGEMENT
@N PLANTING    PFRST PLAST PH2OL PH2OU PH2OD PSTMX PSTMN
 4 PL          80120 80180    40   100    30    40    10
@N IRRIGATION  IMDEP ITHRL ITHRU IROFF IMETH IRAMT IREFF
 4 IR             40    75   100 GS000 IR001    10  0.75
@N NITROGEN    NMDEP NMTHR NAMNT NCODE NAOFF
 4 NI             30    10    50 FE001 GS000
@N RESIDUES    RIPCN RTIME RIDEP
 4 RE            100     1    20
@N HARVEST     HFRST HLAST HPCNP HPCNR
 4 HA              0 81365   100     0