*EXP.DETAILS: X1234567WH GenericName                                                 

*GENERAL
@PEOPLE
 Joshua Elliott                                                             
@ADDRESS
 Computation Institute, University of Chicago                               
@SITE
 51.75, 38.25                                                               

*TREATMENTS                        -------------FACTOR LEVELS------------
@N R O C TNAME.................... CU FL SA IC MP MI MF MR MC MT ME MH SM
 1 1 0 0 RF_fullharm_C1             1  1  0  1  1  1  1  0  0  0  0  1  1
 2 1 0 0 IR_fullharm_C1             1  1  0  1  1  1  1  0  0  0  0  1  2
 3 1 0 0 RF_default_WW_C1           1  1  0  1  1  1  1  0  0  0  0  1  3
 4 1 0 0 IR_default_WW_C1           1  1  0  1  1  1  1  0  0  0  0  1  4
 5 1 0 0 RF_default_SW_C1           1  1  0  1  1  1  1  0  0  0  0  1  5
 6 1 0 0 IR_default_SW_C1           1  1  0  1  1  1  1  0  0  0  0  1  6
 7 1 0 0 RF_harmnon_C1              1  1  0  1  1  1  1  0  0  0  0  1  7
 8 1 0 0 IR_harmnon_C1              1  1  0  1  1  1  1  0  0  0  0  1  8
 9 1 0 0 RF_fullharm_EV-R_C1        1  1  0  1  1  1  1  0  0  0  0  1  9
10 1 0 0 IR_fullharm_EV-R_C1        1  1  0  1  1  1  1  0  0  0  0  1 10
11 1 0 0 RF_fullharm_C2             2  1  0  1  2  1  1  0  0  0  0  1  1
12 1 0 0 IR_fullharm_C2             2  1  0  1  2  1  1  0  0  0  0  1  2
13 1 0 0 RF_default_WW_C2           2  1  0  1  2  1  1  0  0  0  0  1  3
14 1 0 0 IR_default_WW_C2           2  1  0  1  2  1  1  0  0  0  0  1  4
15 1 0 0 RF_default_SW_C2           2  1  0  1  2  1  1  0  0  0  0  1  5
16 1 0 0 IR_default_SW_C2           2  1  0  1  2  1  1  0  0  0  0  1  6
17 1 0 0 RF_harmnon_C2              2  1  0  1  2  1  1  0  0  0  0  1  7
18 1 0 0 IR_harmnon_C2              2  1  0  1  2  1  1  0  0  0  0  1  8
19 1 0 0 RF_fullharm_EV-R_C2        2  1  0  1  2  1  1  0  0  0  0  1  9
20 1 0 0 IR_fullharm_EV-R_C2        2  1  0  1  2  1  1  0  0  0  0  1 10
21 1 0 0 RF_fullharm_C3             3  1  0  1  3  1  1  0  0  0  0  1  1
22 1 0 0 IR_fullharm_C3             3  1  0  1  3  1  1  0  0  0  0  1  2
23 1 0 0 RF_default_WW_C3           3  1  0  1  3  1  1  0  0  0  0  1  3
24 1 0 0 IR_default_WW_C3           3  1  0  1  3  1  1  0  0  0  0  1  4
25 1 0 0 RF_default_SW_C3           3  1  0  1  3  1  1  0  0  0  0  1  5
26 1 0 0 IR_default_SW_C3           3  1  0  1  3  1  1  0  0  0  0  1  6
27 1 0 0 RF_harmnon_C3              3  1  0  1  3  1  1  0  0  0  0  1  7
28 1 0 0 IR_harmnon_C3              3  1  0  1  3  1  1  0  0  0  0  1  8
29 1 0 0 RF_fullharm_EV-R_C3        3  1  0  1  3  1  1  0  0  0  0  1  9
30 1 0 0 IR_fullharm_EV-R_C3        3  1  0  1  3  1  1  0  0  0  0  1 10

*CULTIVARS
@C CR INGENO CNAME
 1 WH 990001 Generic         
 2 WH 990002 Generic         
 3 WH 990003 Generic         

*FIELDS
@L ID_FIELD WSTA....  FLSA  FLOB  FLDT  FLDD  FLDS  FLST SLTX  SLDP  ID_SOIL    FLNAME
 1 GENERIC  GENERIC1   -99   -99 -99     -99   -99 -99   -99     -99 XY01234567 GenericField1
@L ...........XCRD ...........YCRD .....ELEV .............AREA .SLEN .FLWR .SLAS FLHST FHDUR
 1          -99.00          -99.00       -99               -99 -99     -99   -99   -99   -99

*INITIAL CONDITIONS
@C   PCR ICDAT  ICRT  ICND  ICRN  ICRE  ICWD ICRES ICREN ICREP ICRIP ICRID ICNAME
 1    WH 80001   -99   -99     1     1   -99  1000  1.00  0.00   100    10 1000kg Residue
@C  ICBL  SH2O  SNH4  SNO3
 1    30 0.180    .1   0.1
 1   100 0.180    .1   0.1
 1   200 0.180    .1   0.1

*PLANTING DETAILS
@P PDATE EDATE  PPOP  PPOE  PLME  PLDS  PLRS  PLRD  PLDP  PLWT  PAGE  PENV  PLPH  SPRL                        PLNAME
 1 80001   -99 400.0 400.0     S     R    17   -99   0.4   -99   -99 -99.0 -99.0   -99                        Generic
 2 80001   -99 400.0 400.0     S     R    17   -99   0.4   -99   -99 -99.0 -99.0   -99                        Generic
 3 80001   -99 400.0 400.0     S     R    17   -99   0.4   -99   -99 -99.0 -99.0   -99                        Generic

*IRRIGATION AND WATER MANAGEMENT
@I  EFIR  IDEP  ITHR  IEPT  IOFF  IAME  IAMT IRNAME
 1  1.00    40    75   100 GS000 IR001    10 -99
@I IDATE  IROP IRVAL
 1 80001 IR001    79

*FERTILIZERS (INORGANIC)
@F FDATE  FMCD  FACD  FDEP  FAMN  FAMP  FAMK  FAMC  FAMO  FOCD FERNAME
 1     1 FE001 AP002    15   109   -99   -99   -99   -99   -99 event
 1    45 FE001 AP002    15   109   -99   -99   -99   -99   -99 event

*HARVEST DETAILS
@H HDATE  HSTG  HCOM HSIZE   HPC  HBPC HNAME
 1 81001 -99   -99   -99     -99   -99 wheat

*SIMULATION CONTROLS
@N GENERAL     NYERS NREPS START SDATE RSEED SNAME.................... SMODEL
 1 GE             31     1     S 80001  2150 Generic                   WHCER
@N OPTIONS     WATER NITRO SYMBI PHOSP POTAS DISES  CHEM  TILL   CO2
 1 OP              Y     Y     Y     N     N     N     N     N     M
@N METHODS     WTHER INCON LIGHT EVAPO INFIL PHOTO HYDRO NSWIT MESOM MESEV MESOL
 1 ME              M     M     E     F     S     C     R     1     G     S     2
@N MANAGEMENT  PLANT IRRIG FERTI RESID HARVS
 1 MA              A     N     D     A     R
@N OUTPUTS     FNAME OVVEW SUMRY FROPT GROUT CAOUT WAOUT NIOUT MIOUT DIOUT VBOSE CHOUT OPOUT
 1 OU              N     Y     Y    14     N     N     N     N     N     N     N     N     N

@  AUTOMATIC MANAGEMENT
@N PLANTING    PFRST PLAST PH2OL PH2OU PH2OD PSTMX PSTMN
 1 PL          80050 80292    40   100    30    40    10
@N IRRIGATION  IMDEP ITHRL ITHRU IROFF IMETH IRAMT IREFF
 1 IR             40    75   100 GS000 IR001    10  0.75
@N NITROGEN    NMDEP NMTHR NAMNT NCODE NAOFF
 1 NI             30    10    50 FE001 GS000
@N RESIDUES    RIPCN RTIME RIDEP
 1 RE            100     1    20
@N HARVEST     HFRST HLAST HPCNP HPCNR
 1 HA              0 81365   100     0

@N GENERAL     NYERS NREPS START SDATE RSEED SNAME.................... SMODEL
 2 GE             31     1     S 80001  2150 Generic                   WHCER
@N OPTIONS     WATER NITRO SYMBI PHOSP POTAS DISES  CHEM  TILL   CO2
 2 OP              Y     Y     Y     N     N     N     N     N     M
@N METHODS     WTHER INCON LIGHT EVAPO INFIL PHOTO HYDRO NSWIT MESOM MESEV MESOL
 2 ME              M     M     E     F     S     C     R     1     G     S     2
@N MANAGEMENT  PLANT IRRIG FERTI RESID HARVS
 2 MA              A     A     D     A     R
@N OUTPUTS     FNAME OVVEW SUMRY FROPT GROUT CAOUT WAOUT NIOUT MIOUT DIOUT VBOSE CHOUT OPOUT
 2 OU              N     Y     Y    14     N     N     N     N     N     N     N     N     N

@  AUTOMATIC MANAGEMENT
@N PLANTING    PFRST PLAST PH2OL PH2OU PH2OD PSTMX PSTMN
 2 PL          80232 80292    40   100    30    40    10
@N IRRIGATION  IMDEP ITHRL ITHRU IROFF IMETH IRAMT IREFF
 2 IR             40    75   100 GS000 IR001    10  0.75
@N NITROGEN    NMDEP NMTHR NAMNT NCODE NAOFF
 2 NI             30    10    50 FE001 GS000
@N RESIDUES    RIPCN RTIME RIDEP
 2 RE            100     1    20
@N HARVEST     HFRST HLAST HPCNP HPCNR
 2 HA              0 81365   100     0

@N GENERAL     NYERS NREPS START SDATE RSEED SNAME.................... SMODEL
 3 GE             31     1     S 80001  2150 Generic                   WHCER
@N OPTIONS     WATER NITRO SYMBI PHOSP POTAS DISES  CHEM  TILL   CO2
 3 OP              Y     Y     Y     N     N     N     N     N     M
@N METHODS     WTHER INCON LIGHT EVAPO INFIL PHOTO HYDRO NSWIT MESOM MESEV MESOL
 3 ME              M     M     E     F     S     C     R     1     G     S     2
@N MANAGEMENT  PLANT IRRIG FERTI RESID HARVS
 3 MA              A     N     D     A     R
@N OUTPUTS     FNAME OVVEW SUMRY FROPT GROUT CAOUT WAOUT NIOUT MIOUT DIOUT VBOSE CHOUT OPOUT
 3 OU              N     Y     Y    14     N     N     N     N     N     N     N     N     N

@  AUTOMATIC MANAGEMENT
@N PLANTING    PFRST PLAST PH2OL PH2OU PH2OD PSTMX PSTMN
 3 PL          80232 80292    40   100    30    40    10
@N IRRIGATION  IMDEP ITHRL ITHRU IROFF IMETH IRAMT IREFF
 3 IR             40    75   100 GS000 IR001    10  0.75
@N NITROGEN    NMDEP NMTHR NAMNT NCODE NAOFF
 3 NI             30    10    50 FE001 GS000
@N RESIDUES    RIPCN RTIME RIDEP
 3 RE            100     1    20
@N HARVEST     HFRST HLAST HPCNP HPCNR
 3 HA              0 81365   100     0

@N GENERAL     NYERS NREPS START SDATE RSEED SNAME.................... SMODEL
 4 GE             31     1     S 80001  2150 Generic                   WHCER
@N OPTIONS     WATER NITRO SYMBI PHOSP POTAS DISES  CHEM  TILL   CO2
 4 OP              Y     Y     Y     N     N     N     N     N     M
@N METHODS     WTHER INCON LIGHT EVAPO INFIL PHOTO HYDRO NSWIT MESOM MESEV MESOL
 4 ME              M     M     E     F     S     C     R     1     G     S     2
@N MANAGEMENT  PLANT IRRIG FERTI RESID HARVS
 4 MA              A     A     D     A     R
@N OUTPUTS     FNAME OVVEW SUMRY FROPT GROUT CAOUT WAOUT NIOUT MIOUT DIOUT VBOSE CHOUT OPOUT
 4 OU              N     Y     Y    14     N     N     N     N     N     N     N     N     N

@  AUTOMATIC MANAGEMENT
@N PLANTING    PFRST PLAST PH2OL PH2OU PH2OD PSTMX PSTMN
 4 PL          80232 80292    40   100    30    40    10
@N IRRIGATION  IMDEP ITHRL ITHRU IROFF IMETH IRAMT IREFF
 4 IR             40    75   100 GS000 IR001    10  0.75
@N NITROGEN    NMDEP NMTHR NAMNT NCODE NAOFF
 4 NI             30    10    50 FE001 GS000
@N RESIDUES    RIPCN RTIME RIDEP
 4 RE            100     1    20
@N HARVEST     HFRST HLAST HPCNP HPCNR
 4 HA              0 81365   100     0

@N GENERAL     NYERS NREPS START SDATE RSEED SNAME.................... SMODEL
 5 GE             31     1     S 80001  2150 Generic                   WHCER
@N OPTIONS     WATER NITRO SYMBI PHOSP POTAS DISES  CHEM  TILL   CO2
 5 OP              Y     Y     Y     N     N     N     N     N     M
@N METHODS     WTHER INCON LIGHT EVAPO INFIL PHOTO HYDRO NSWIT MESOM MESEV MESOL
 5 ME              M     M     E     F     S     C     R     1     G     S     2
@N MANAGEMENT  PLANT IRRIG FERTI RESID HARVS
 5 MA              A     N     D     A     R
@N OUTPUTS     FNAME OVVEW SUMRY FROPT GROUT CAOUT WAOUT NIOUT MIOUT DIOUT VBOSE CHOUT OPOUT
 5 OU              N     Y     Y    14     N     N     N     N     N     N     N     N     N

@  AUTOMATIC MANAGEMENT
@N PLANTING    PFRST PLAST PH2OL PH2OU PH2OD PSTMX PSTMN
 5 PL          80110 80170    40   100    30    40    10
@N IRRIGATION  IMDEP ITHRL ITHRU IROFF IMETH IRAMT IREFF
 5 IR             40    75   100 GS000 IR001    10  0.75
@N NITROGEN    NMDEP NMTHR NAMNT NCODE NAOFF
 5 NI             30    10    50 FE001 GS000
@N RESIDUES    RIPCN RTIME RIDEP
 5 RE            100     1    20
@N HARVEST     HFRST HLAST HPCNP HPCNR
 5 HA              0 81365   100     0

@N GENERAL     NYERS NREPS START SDATE RSEED SNAME.................... SMODEL
 6 GE             31     1     S 80001  2150 Generic                   WHCER
@N OPTIONS     WATER NITRO SYMBI PHOSP POTAS DISES  CHEM  TILL   CO2
 6 OP              Y     Y     Y     N     N     N     N     N     M
@N METHODS     WTHER INCON LIGHT EVAPO INFIL PHOTO HYDRO NSWIT MESOM MESEV MESOL
 6 ME              M     M     E     F     S     C     R     1     G     S     2
@N MANAGEMENT  PLANT IRRIG FERTI RESID HARVS
 6 MA              A     A     D     A     R
@N OUTPUTS     FNAME OVVEW SUMRY FROPT GROUT CAOUT WAOUT NIOUT MIOUT DIOUT VBOSE CHOUT OPOUT
 6 OU              N     Y     Y    14     N     N     N     N     N     N     N     N     N

@  AUTOMATIC MANAGEMENT
@N PLANTING    PFRST PLAST PH2OL PH2OU PH2OD PSTMX PSTMN
 6 PL          80110 80170    40   100    30    40    10
@N IRRIGATION  IMDEP ITHRL ITHRU IROFF IMETH IRAMT IREFF
 6 IR             40    75   100 GS000 IR001    10  0.75
@N NITROGEN    NMDEP NMTHR NAMNT NCODE NAOFF
 6 NI             30    10    50 FE001 GS000
@N RESIDUES    RIPCN RTIME RIDEP
 6 RE            100     1    20
@N HARVEST     HFRST HLAST HPCNP HPCNR
 6 HA              0 81365   100     0

@N GENERAL     NYERS NREPS START SDATE RSEED SNAME.................... SMODEL
 7 GE             31     1     S 80001  2150 Generic                   WHCER
@N OPTIONS     WATER NITRO SYMBI PHOSP POTAS DISES  CHEM  TILL   CO2
 7 OP              Y     N     Y     N     N     N     N     N     M
@N METHODS     WTHER INCON LIGHT EVAPO INFIL PHOTO HYDRO NSWIT MESOM MESEV MESOL
 7 ME              M     M     E     F     S     C     R     1     G     S     2
@N MANAGEMENT  PLANT IRRIG FERTI RESID HARVS
 7 MA              A     N     D     A     R
@N OUTPUTS     FNAME OVVEW SUMRY FROPT GROUT CAOUT WAOUT NIOUT MIOUT DIOUT VBOSE CHOUT OPOUT
 7 OU              N     Y     Y    14     N     N     N     N     N     N     N     N     N

@  AUTOMATIC MANAGEMENT
@N PLANTING    PFRST PLAST PH2OL PH2OU PH2OD PSTMX PSTMN
 7 PL          80232 80292    40   100    30    40    10
@N IRRIGATION  IMDEP ITHRL ITHRU IROFF IMETH IRAMT IREFF
 7 IR             40    75   100 GS000 IR001    10  0.75
@N NITROGEN    NMDEP NMTHR NAMNT NCODE NAOFF
 7 NI             30    10    50 FE001 GS000
@N RESIDUES    RIPCN RTIME RIDEP
 7 RE            100     1    20
@N HARVEST     HFRST HLAST HPCNP HPCNR
 7 HA              0 81365   100     0

@N GENERAL     NYERS NREPS START SDATE RSEED SNAME.................... SMODEL
 8 GE             31     1     S 80001  2150 Generic                   WHCER
@N OPTIONS     WATER NITRO SYMBI PHOSP POTAS DISES  CHEM  TILL   CO2
 8 OP              Y     N     Y     N     N     N     N     N     M
@N METHODS     WTHER INCON LIGHT EVAPO INFIL PHOTO HYDRO NSWIT MESOM MESEV MESOL
 8 ME              M     M     E     F     S     C     R     1     G     S     2
@N MANAGEMENT  PLANT IRRIG FERTI RESID HARVS
 8 MA              A     A     D     A     R
@N OUTPUTS     FNAME OVVEW SUMRY FROPT GROUT CAOUT WAOUT NIOUT MIOUT DIOUT VBOSE CHOUT OPOUT
 8 OU              N     Y     Y    14     N     N     N     N     N     N     N     N     N

@  AUTOMATIC MANAGEMENT
@N PLANTING    PFRST PLAST PH2OL PH2OU PH2OD PSTMX PSTMN
 8 PL          80232 80292    40   100    30    40    10
@N IRRIGATION  IMDEP ITHRL ITHRU IROFF IMETH IRAMT IREFF
 8 IR             40    75   100 GS000 IR001    10  0.75
@N NITROGEN    NMDEP NMTHR NAMNT NCODE NAOFF
 8 NI             30    10    50 FE001 GS000
@N RESIDUES    RIPCN RTIME RIDEP
 8 RE            100     1    20
@N HARVEST     HFRST HLAST HPCNP HPCNR
 8 HA              0 81365   100     0

@N GENERAL     NYERS NREPS START SDATE RSEED SNAME.................... SMODEL
 9 GE             31     1     S 80001  2150 Generic                   WHCER
@N OPTIONS     WATER NITRO SYMBI PHOSP POTAS DISES  CHEM  TILL   CO2
 9 OP              Y     Y     Y     N     N     N     N     N     M
@N METHODS     WTHER INCON LIGHT EVAPO INFIL PHOTO HYDRO NSWIT MESOM MESEV MESOL
 9 ME              M     M     E     R     S     C     R     1     G     S     2
@N MANAGEMENT  PLANT IRRIG FERTI RESID HARVS
 9 MA              A     N     D     A     R
@N OUTPUTS     FNAME OVVEW SUMRY FROPT GROUT CAOUT WAOUT NIOUT MIOUT DIOUT VBOSE CHOUT OPOUT
 9 OU              N     Y     Y    14     N     N     N     N     N     N     N     N     N

@  AUTOMATIC MANAGEMENT
@N PLANTING    PFRST PLAST PH2OL PH2OU PH2OD PSTMX PSTMN
 9 PL          80232 80292    40   100    30    40    10
@N IRRIGATION  IMDEP ITHRL ITHRU IROFF IMETH IRAMT IREFF
 9 IR             40    75   100 GS000 IR001    10  0.75
@N NITROGEN    NMDEP NMTHR NAMNT NCODE NAOFF
 9 NI             30    10    50 FE001 GS000
@N RESIDUES    RIPCN RTIME RIDEP
 9 RE            100     1    20
@N HARVEST     HFRST HLAST HPCNP HPCNR
 9 HA              0 81365   100     0

@N GENERAL     NYERS NREPS START SDATE RSEED SNAME.................... SMODEL
10 GE             31     1     S 80001  2150 Generic                   WHCER
@N OPTIONS     WATER NITRO SYMBI PHOSP POTAS DISES  CHEM  TILL   CO2
10 OP              Y     Y     Y     N     N     N     N     N     M
@N METHODS     WTHER INCON LIGHT EVAPO INFIL PHOTO HYDRO NSWIT MESOM MESEV MESOL
10 ME              M     M     E     R     S     C     R     1     G     S     2
@N MANAGEMENT  PLANT IRRIG FERTI RESID HARVS
10 MA              A     A     D     A     R
@N OUTPUTS     FNAME OVVEW SUMRY FROPT GROUT CAOUT WAOUT NIOUT MIOUT DIOUT VBOSE CHOUT OPOUT
10 OU              N     Y     Y    14     N     N     N     N     N     N     N     N     N

@  AUTOMATIC MANAGEMENT
@N PLANTING    PFRST PLAST PH2OL PH2OU PH2OD PSTMX PSTMN
10 PL          80232 80292    40   100    30    40    10
@N IRRIGATION  IMDEP ITHRL ITHRU IROFF IMETH IRAMT IREFF
10 IR             40    75   100 GS000 IR001    10  0.75
@N NITROGEN    NMDEP NMTHR NAMNT NCODE NAOFF
10 NI             30    10    50 FE001 GS000
@N RESIDUES    RIPCN RTIME RIDEP
10 RE            100     1    20
@N HARVEST     HFRST HLAST HPCNP HPCNR
10 HA              0 81365   100     0